**
** Heading +++++++++++++++++++++++++++++++++++++++++++++++++
**
*Heading
Hash: fnd99LQM, Date: 05/06/2026, Unit system: MM_TON_S_C
**
** Nodes +++++++++++++++++++++++++++++++++++++++++++++++++++
**
*Node
1, 0.00000000E+000, -1.00000000E+001, -5.00000000E+000
2, 0.00000000E+000, 1.00000000E+001, -5.00000000E+000
3, 0.00000000E+000, 1.00000000E+001, 5.00000000E+000
4, 0.00000000E+000, -1.00000000E+001, 5.00000000E+000
5, 2.00000000E+002, -1.00000000E+001, -5.00000000E+000
6, 2.00000000E+002, 1.00000000E+001, -5.00000000E+000
7, 2.00000000E+002, -1.00000000E+001, 5.00000000E+000
8, 2.00000000E+002, 1.00000000E+001, 5.00000000E+000
9, 0.00000000E+000, -8.57142857E+000, -5.00000000E+000
10, 0.00000000E+000, -7.14285714E+000, -5.00000000E+000
11, 0.00000000E+000, -5.71428571E+000, -5.00000000E+000
12, 0.00000000E+000, -4.28571429E+000, -5.00000000E+000
13, 0.00000000E+000, -2.85714286E+000, -5.00000000E+000
14, 0.00000000E+000, -1.42857143E+000, -5.00000000E+000
15, 0.00000000E+000, -1.77635684E-015, -5.00000000E+000
16, 0.00000000E+000, 1.42857143E+000, -5.00000000E+000
17, 0.00000000E+000, 2.85714286E+000, -5.00000000E+000
18, 0.00000000E+000, 4.28571429E+000, -5.00000000E+000
19, 0.00000000E+000, 5.71428571E+000, -5.00000000E+000
20, 0.00000000E+000, 7.14285714E+000, -5.00000000E+000
** ... 53207 like lines cut
**
** Elements ++++++++++++++++++++++++++++++++++++++++++++++++
**
*Element, Type=C3D20, Elset=Solid_part-1
1, 1, 9, 1221, 78, 85, 1434, 16467, 7255, 22, 1287, 1286, 84, 3151, 25048, 25049,
8712, 217, 3150, 25047, 8447
2, 85, 1434, 16467, 7255, 86, 1435, 16468, 7256, 3151, 25048, 25049, 8712, 3153, 25051, 25052,
8713, 218, 3152, 25050, 8449
3, 86, 1435, 16468, 7256, 87, 1436, 16469, 7257, 3153, 25051, 25052, 8713, 3155, 25054, 25055,
8714, 219, 3154, 25053, 8451
4, 87, 1436, 16469, 7257, 88, 1437, 16470, 7258, 3155, 25054, 25055, 8714, 3157, 25057, 25058,
8715, 220, 3156, 25056, 8453
5, 88, 1437, 16470, 7258, 89, 1438, 16471, 7259, 3157, 25057, 25058, 8715, 3159, 25060, 25061,
8716, 221, 3158, 25059, 8455
6, 89, 1438, 16471, 7259, 90, 1439, 16472, 7260, 3159, 25060, 25061, 8716, 3161, 25063, 25064,
8717, 222, 3160, 25062, 8457
7, 90, 1439, 16472, 7260, 91, 1440, 16473, 7261, 3161, 25063, 25064, 8717, 3163, 25066, 25067,
8718, 223, 3162, 25065, 8459
8, 91, 1440, 16473, 7261, 92, 1441, 16474, 7262, 3163, 25066, 25067, 8718, 3165, 25069, 25070,
8719, 224, 3164, 25068, 8461
9, 92, 1441, 16474, 7262, 93, 1442, 16475, 7263, 3165, 25069, 25070, 8719, 3167, 25072, 25073,
8720, 225, 3166, 25071, 8463
10, 93, 1442, 16475, 7263, 94, 1443, 16476, 7264, 3167, 25072, 25073, 8720, 3169, 25075, 25076,
8721, 226, 3168, 25074, 8465
** ... 22324 like lines cut
**
** Node sets +++++++++++++++++++++++++++++++++++++++++++++++
**
*Nset, Nset=Internal_Selection-1_Displacement_Rotation-1
1, 2, 3, 4, 9, 10, 11, 12, 13, 14, 15, 16, 17, 18, 19, 20, 
21, 22, 23, 24, 25, 26, 27, 28, 29, 30, 31, 32, 33, 34, 35, 36, 
37, 38, 39, 40, 41, 42, 43, 44, 45, 46, 47, 48, 49, 50, 51, 52, 
53, 54, 55, 56, 57, 58, 59, 60, 61, 62, 63, 64, 65, 66, 67, 68, 
69, 70, 71, 72, 73, 74, 75, 76, 77, 78, 79, 80, 81, 82, 83, 84, 
1221, 1222, 1223, 1224, 1225, 1226, 1227, 1228, 1229, 1230, 1231, 1232, 1233, 1234, 1235, 1236, 
1237, 1238, 1239, 1240, 1241, 1242, 1243, 1244, 1245, 1246, 1247, 1248, 1249, 1250, 1251, 1252, 
1253, 1254, 1255, 1256, 1257, 1258, 1259, 1260, 1261, 1262, 1263, 1264, 1265, 1266, 1267, 1268, 
1269, 1270, 1271, 1272, 1273, 1274, 1275, 1276, 1277, 1278, 1279, 1280, 1281, 1282, 1283, 1284, 
1285, 1286, 1287, 1288, 1289, 1290, 1291, 1292, 1293, 1294, 1295, 1296, 1297, 1298, 1299, 1300, 
1301, 1302, 1303, 1304, 1305, 1306, 1307, 1308, 1309, 1310, 1311, 1312, 1313, 1314, 1315, 1316, 
1317, 1318, 1319, 1320, 1321, 1322, 1323, 1324, 1325, 1326, 1327, 1328, 1329, 1330, 1331, 1332, 
1333, 1334, 1335, 1336, 1337, 1338, 1339, 1340, 1341, 1342, 1343, 1344, 1345, 1346, 1347, 1348, 
1349, 1350, 1351, 1352, 1353, 1354, 1355, 1356, 1357, 1358, 1359, 1360, 1361, 1362, 1363, 1364, 
1365, 1366, 1367, 1368, 1369, 1370, 1371, 1372, 1373, 1374, 1375, 1376, 1377, 1378, 1379, 1380, 
1381, 1382, 1383, 1384, 1385, 1386, 1387, 1388, 1389, 1390, 1391, 1392, 1393, 1394, 1395, 1396, 
1397, 1398, 1399, 1400, 1401, 1402, 1403, 1404, 1405, 1406, 1407, 1408, 1409, 1410, 1411, 1412, 
1413, 1414, 1415, 1416, 1417, 1418, 1419, 1420, 1421, 1422, 1423, 1424, 1425, 1426, 1427, 1428, 
1429, 1430, 1431, 1432, 1433
*Nset, Nset=Internal-1_Internal_Selection-1_Surface_Traction-1
5, 6, 7, 8, 615, 616, 617, 618, 619, 620, 621, 622, 623, 624, 625, 626, 
627, 628, 629, 630, 631, 632, 633, 634, 635, 636, 637, 638, 639, 640, 641, 907, 
908, 909, 910, 911, 912, 913, 914, 915, 916, 917, 1183, 1184, 1185, 1186, 1187, 1188, 
1189, 1190, 1191, 1192, 1193, 1194, 1195, 1196, 1197, 1198, 1199, 1200, 1201, 1202, 1203, 1204, 
1205, 1206, 1207, 1208, 1209, 1210, 1211, 1212, 1213, 1214, 1215, 1216, 1217, 1218, 1219, 1220, 
16254, 16255, 16256, 16257, 16258, 16259, 16260, 16261, 16262, 16263, 16264, 16265, 16266, 16267, 16268, 16269, 
16270, 16271, 16272, 16273, 16274, 16275, 16276, 16277, 16278, 16279, 16280, 16281, 16282, 16283, 16284, 16285, 
16286, 16287, 16288, 16289, 16290, 16291, 16292, 16293, 16294, 16295, 16296, 16297, 16298, 16299, 16300, 16301, 
16302, 16303, 16304, 16305, 16306, 16307, 16308, 16309, 16310, 16311, 16312, 16313, 16314, 16315, 16316, 16317, 
16318, 16319, 16320, 16321, 16322, 16323, 16324, 16325, 16326, 16327, 16328, 16329, 16330, 16331, 16332, 16333, 
16334, 16335, 16336, 16337, 16338, 16339, 16340, 16341, 16342, 16343, 16344, 16345, 16346, 16347, 16348, 16349, 
16350, 16351, 16352, 16353, 16354, 16355, 16356, 16357, 16358, 16359, 16360, 16361, 16362, 16363, 16364, 16365, 
16366, 16367, 16368, 16369, 16370, 16371, 16372, 16373, 16374, 16375, 16376, 16377, 16378, 16379, 16380, 16381, 
16382, 16383, 16384, 16385, 16386, 16387, 16388, 16389, 16390, 16391, 16392, 16393, 16394, 16395, 16396, 16397, 
16398, 16399, 16400, 16401, 16402, 16403, 16404, 16405, 16406, 16407, 16408, 16409, 16410, 16411, 16412, 16413, 
16414, 16415, 16416, 16417, 16418, 16419, 16420, 16421, 16422, 16423, 16424, 16425, 16426, 16427, 16428, 16429, 
16430, 16431, 16432, 16433, 16434, 16435, 16436, 16437, 16438, 16439, 16440, 16441, 16442, 16443, 16444, 16445, 
16446, 16447, 16448, 16449, 16450, 16451, 16452, 16453, 16454, 16455, 16456, 16457, 16458, 16459, 16460, 16461, 
16462, 16463, 16464, 16465, 16466
**
** Element sets ++++++++++++++++++++++++++++++++++++++++++++
**
*Elset, Elset=Internal_Selection-1_Solid_Section-1
Solid_part-1
*Elset, Elset=Internal-1_Internal_Selection-1_Surface_Traction-1_S2
133, 266, 399, 532, 665, 798, 931, 1064, 1197, 1330, 1463, 1596, 1729, 1862, 1995, 2128, 
2261, 2394, 2527, 2660, 2793, 2926, 3059, 3192, 3325, 3458, 3591, 3724, 3857, 3990, 4123, 4256, 
4389, 4522, 4655, 4788, 4921, 5054, 5187, 5320, 5453, 5586, 5719, 5852, 5985, 6118, 6251, 6384, 
6517, 6650, 6783, 6916, 7049, 7182, 7315, 7448, 7581, 7714, 7847, 7980, 8113, 8246, 8379, 8512, 
8645, 8778, 8911, 9044, 9177, 9310, 9443, 9576, 9709, 9842, 9975, 10108, 10241, 10374, 10507, 10640, 
10773, 10906, 11039, 11172
**
** Surfaces ++++++++++++++++++++++++++++++++++++++++++++++++
**
*Surface, Name=Internal_Selection-1_Surface_Traction-1, Type=Element
Internal-1_Internal_Selection-1_Surface_Traction-1_S2, S2
**
** Physical constants ++++++++++++++++++++++++++++++++++++++
**
**
** Coordinate systems ++++++++++++++++++++++++++++++++++++++
**
**
** Materials +++++++++++++++++++++++++++++++++++++++++++++++
**
*Material, Name=S235
*Density
7.8E-09
*Elastic
210000, 0.28
*Expansion, Zero=20
1.1E-05
*Conductivity
14
*Specific heat
440000000
**
** Sections ++++++++++++++++++++++++++++++++++++++++++++++++
**
*Solid section, Elset=Internal_Selection-1_Solid_Section-1, Material=S235
**
** Pre-tension sections ++++++++++++++++++++++++++++++++++++
**
**
** Constraints +++++++++++++++++++++++++++++++++++++++++++++
**
**
** Surface interactions ++++++++++++++++++++++++++++++++++++
**
**
** Contact pairs +++++++++++++++++++++++++++++++++++++++++++
**
**
** Amplitudes ++++++++++++++++++++++++++++++++++++++++++++++
**
**
** Initial conditions ++++++++++++++++++++++++++++++++++++++
**
**
** Steps +++++++++++++++++++++++++++++++++++++++++++++++++++
**
**
** Step-1 ++++++++++++++++++++++++++++++++++++++++++++++++++
**
*Step
*Static, Solver=Pardiso
**
** Controls ++++++++++++++++++++++++++++++++++++++++++++++++
**
**
** Output frequency ++++++++++++++++++++++++++++++++++++++++
**
**
** Boundary conditions +++++++++++++++++++++++++++++++++++++
**
*Boundary, op=New
** Name: Displacement_Rotation-1
*Boundary
Internal_Selection-1_Displacement_Rotation-1, 1, 1, 0
Internal_Selection-1_Displacement_Rotation-1, 2, 2, 0
Internal_Selection-1_Displacement_Rotation-1, 3, 3, 0
**
** Loads +++++++++++++++++++++++++++++++++++++++++++++++++++
**
*Cload, op=New
*Dload, op=New
** Name: Surface_Traction-1
*Cload
5, 3, 9.92063492E-002
911, 3, 1.98412698E-001
16254, 3, 3.96825397E-001
615, 3, 1.98412698E-001
917, 3, -3.96825397E-001
16320, 3, -7.93650794E-001
16319, 3, -7.93650794E-001
628, 3, -3.96825397E-001
910, 3, 1.98412698E-001
16255, 3, 3.96825397E-001
916, 3, -3.96825397E-001
16322, 3, -7.93650794E-001
16321, 3, -7.93650794E-001
909, 3, 1.98412698E-001
16256, 3, 3.96825397E-001
915, 3, -3.96825397E-001
16324, 3, -7.93650794E-001
16323, 3, -7.93650794E-001
908, 3, 1.98412698E-001
16257, 3, 3.96825397E-001
** ... 273 like lines cut
**
** Defined fields ++++++++++++++++++++++++++++++++++++++++++
**
**
** History outputs +++++++++++++++++++++++++++++++++++++++++
**
**
** Field outputs +++++++++++++++++++++++++++++++++++++++++++
**
*Node file
RF, U
*El file
S, E, NOE
**
** End step ++++++++++++++++++++++++++++++++++++++++++++++++
**
*End step
