**
** Heading +++++++++++++++++++++++++++++++++++++++++++++++++
**
*Heading
Hash: 9IR6fZGr, Date: 01/10/2026, Unit system: MM_TON_S_C
**
** Nodes +++++++++++++++++++++++++++++++++++++++++++++++++++
**
*Node
1, 5.00000000E+000, 0.00000000E+000, 2.00000000E+002
2, 4.69362990E+001, 0.00000000E+000, 2.00000000E+002
3, 5.19362990E+001, 5.00000000E+000, 2.00000000E+002
4, 5.19362990E+001, 3.44981185E+001, 2.00000000E+002
5, 4.69362990E+001, 3.94981185E+001, 2.00000000E+002
6, 5.00000000E+000, 3.94981185E+001, 2.00000000E+002
7, 0.00000000E+000, 3.44981185E+001, 2.00000000E+002
8, 0.00000000E+000, 5.00000000E+000, 2.00000000E+002
9, 4.40027021E+000, 3.03495196E+001, 2.00000000E+002
10, 4.40027021E+000, 9.06216974E+000, 2.00000000E+002
11, 9.40027021E+000, 3.53495196E+001, 2.00000000E+002
12, 4.26148419E+001, 3.53495196E+001, 2.00000000E+002
13, 4.76148419E+001, 3.03495196E+001, 2.00000000E+002
14, 4.76148419E+001, 9.06216974E+000, 2.00000000E+002
15, 4.26148419E+001, 4.06216974E+000, 2.00000000E+002
16, 9.40027021E+000, 4.06216974E+000, 2.00000000E+002
17, 5.19362990E+001, 5.00000000E+000, 0.00000000E+000
18, 5.19362990E+001, 3.44981185E+001, 0.00000000E+000
19, 4.69362990E+001, 0.00000000E+000, 0.00000000E+000
20, 5.00000000E+000, 0.00000000E+000, 0.00000000E+000
** ... 20678 like lines cut
**
** Elements ++++++++++++++++++++++++++++++++++++++++++++++++
**
*Element, Type=C3D4, Elset=Profile
1, 921, 17833, 17328, 17834
2, 14572, 14580, 8826, 8640
3, 13695, 20444, 13575, 13342
4, 15225, 9543, 15224, 9485
5, 8826, 14580, 14572, 14755
6, 14270, 8501, 14220, 8640
7, 6767, 6948, 20551, 19491
8, 19449, 6495, 18865, 19447
9, 412, 2139, 2256, 18470
10, 9171, 9321, 9318, 14957
11, 17861, 17991, 17860, 17301
12, 20551, 19491, 6566, 6767
13, 18360, 6162, 5940, 6283
14, 7997, 14278, 14268, 14493
15, 18349, 11116, 11117, 11332
16, 16950, 19114, 16951, 17151
17, 14493, 14570, 8426, 14501
18, 14268, 14493, 7998, 7997
19, 1079, 19151, 7635, 1080
20, 14280, 8772, 14618, 14573
** ... 68003 like lines cut
**
** Node sets +++++++++++++++++++++++++++++++++++++++++++++++
**
*Nset, Nset=Internal_Selection-1_Fixed-1
17, 18, 19, 20, 21, 22, 23, 24, 25, 26, 27, 28, 29, 30, 31, 32,
177, 178, 179, 180, 181, 182, 183, 184, 185, 186, 187, 188, 189, 190, 191, 192,
193, 194, 195, 196, 197, 198, 199, 200, 201, 202, 203, 204, 205, 206, 207, 208,
209, 210, 211, 212, 213, 214, 215, 216, 217, 218, 219, 220, 221, 222, 223, 224,
225, 226, 227, 228, 229, 230, 231, 232, 233, 234, 235, 236, 237, 238, 239, 240,
241, 242, 243, 244, 245, 246, 247, 248, 249, 250, 251, 252, 253, 254, 255, 256,
257, 258, 259, 260, 261, 262, 263, 264, 265, 266, 267, 268, 269, 270, 271, 272,
273, 274, 275, 276, 277, 278, 279, 280, 281, 282, 283, 284, 285, 286, 287, 288,
289, 290, 291, 292, 293, 294, 295, 296, 297, 298, 299, 300, 301, 302, 303, 304,
305, 306, 307, 308, 309, 310, 311, 312, 313, 314, 315, 316, 317, 318, 319, 320,
1996, 1997, 1998, 1999, 2000, 2001, 2002, 2003, 2004, 2005, 2006, 2007, 2008, 2009, 2010, 2011,
2012, 2013, 2014, 2015, 2016, 2017, 2018, 2019, 2020, 2021, 2022, 2023, 2024, 2025, 2026, 2027,
2028, 2029, 2030, 2031, 2032, 2033, 2034, 2035, 2036, 2037, 2038, 2039, 2040, 2041, 2042, 2043,
2044, 2045, 2046, 2047, 2048, 2049, 2050, 2051, 2052, 2053, 2054, 2055, 2056, 2057, 2058, 2059,
2060, 2061, 2062, 2063, 2064, 2065, 2066, 2067, 2068, 2069, 2070, 2071, 2072, 2073, 2074, 2075,
2076, 2077, 2078, 2079, 2080, 2081, 2082, 2083, 2084, 2085, 2086
*Nset, Nset=Internal-1_Internal_Selection-1_Surface_Traction-1
1, 2, 3, 4, 5, 6, 7, 8, 9, 10, 11, 12, 13, 14, 15, 16,
33, 34, 35, 36, 37, 38, 39, 40, 41, 42, 43, 44, 45, 46, 47, 48,
49, 50, 51, 52, 53, 54, 55, 56, 57, 58, 59, 60, 61, 62, 63, 64,
65, 66, 67, 68, 69, 70, 71, 72, 73, 74, 75, 76, 77, 78, 79, 80,
81, 82, 83, 84, 85, 86, 87, 88, 89, 90, 91, 92, 93, 94, 95, 96,
97, 98, 99, 100, 101, 102, 103, 104, 105, 106, 107, 108, 109, 110, 111, 112,
113, 114, 115, 116, 117, 118, 119, 120, 121, 122, 123, 124, 125, 126, 127, 128,
129, 130, 131, 132, 133, 134, 135, 136, 137, 138, 139, 140, 141, 142, 143, 144,
145, 146, 147, 148, 149, 150, 151, 152, 153, 154, 155, 156, 157, 158, 159, 160,
161, 162, 163, 164, 165, 166, 167, 168, 169, 170, 171, 172, 173, 174, 175, 176,
1905, 1906, 1907, 1908, 1909, 1910, 1911, 1912, 1913, 1914, 1915, 1916, 1917, 1918, 1919, 1920,
1921, 1922, 1923, 1924, 1925, 1926, 1927, 1928, 1929, 1930, 1931, 1932, 1933, 1934, 1935, 1936,
1937, 1938, 1939, 1940, 1941, 1942, 1943, 1944, 1945, 1946, 1947, 1948, 1949, 1950, 1951, 1952,
1953, 1954, 1955, 1956, 1957, 1958, 1959, 1960, 1961, 1962, 1963, 1964, 1965, 1966, 1967, 1968,
1969, 1970, 1971, 1972, 1973, 1974, 1975, 1976, 1977, 1978, 1979, 1980, 1981, 1982, 1983, 1984,
1985, 1986, 1987, 1988, 1989, 1990, 1991, 1992, 1993, 1994, 1995
**
** Element sets ++++++++++++++++++++++++++++++++++++++++++++
**
*Elset, Elset=Internal_Selection-1_Vol_S235
Profile
*Elset, Elset=Internal-1_Internal_Selection-1_Surface_Traction-1_S3
35, 720, 723, 784, 2391, 2459, 2834, 3052, 7925, 8466, 12268, 12307, 12330, 12367, 12376, 12578,
13180, 14350, 14357, 14392, 14440, 14591, 18770, 18981, 21302, 23105, 23419, 23732, 24531, 27184, 27224, 28251,
28280, 31421, 32414, 33604, 34157, 34708, 35427, 36623, 39035, 39037, 39833, 40137, 40149, 40265, 40379, 40383,
40437, 40739, 41681, 41687, 41693, 44223, 44225, 44359, 44428, 44434, 44818, 48070, 48595, 48607, 49562, 49954,
50030, 50701, 50716, 51914, 54183, 54194, 55188, 55203, 57459, 63997, 64746, 64877, 67149, 67448, 67449, 67488,
67525
*Elset, Elset=Internal-1_Internal_Selection-1_Surface_Traction-1_S1
779, 1343, 1996, 2971, 3371, 5845, 7929, 7930, 8455, 12257, 12260, 12346, 12370, 12830, 13037, 13039,
13864, 14074, 14374, 14401, 14423, 14520, 14598, 14694, 14819, 18849, 19281, 19630, 21124, 22529, 22842, 25504,
25776, 27191, 27215, 27226, 28241, 28282, 31651, 32632, 35521, 36197, 36212, 39159, 39336, 40004, 40436, 40451,
40452, 40471, 40472, 40498, 40713, 40728, 40729, 41510, 41773, 42404, 42451, 42452, 42598, 43390, 43704, 43712,
43958, 44242, 44482, 44485, 44822, 47544, 49355, 50665, 50966, 52306, 54151, 54182, 55068, 55176, 55198, 58328,
59963, 61081, 61086, 61577, 63861, 65122, 67447, 67519, 67520, 67627, 67749
*Elset, Elset=Internal-1_Internal_Selection-1_Surface_Traction-1_S4
916, 2253, 2646, 3272, 4493, 5351, 5652, 6790, 7094, 9493, 10580, 11378, 12286, 12360, 12522, 13410,
13612, 14394, 14421, 14577, 14582, 14601, 16766, 16823, 18664, 20051, 20491, 22623, 23729, 25222, 27189, 27256,
27315, 27393, 27677, 28270, 29154, 30877, 32396, 36557, 37278, 38088, 40740, 40788, 41668, 41671, 41692, 41888,
41987, 42430, 43274, 43318, 43671, 44690, 44692, 46046, 47545, 47576, 48074, 48075, 48133, 48136, 49151, 49317,
49363, 53968, 54154, 54176, 54200, 54218, 54223, 54225, 54232, 54237, 55063, 55447, 55483, 57460, 57632, 58335,
58337, 59898, 60270, 61083, 61545, 62885, 64444, 65917, 66028, 67188, 67460, 67482, 67498, 67510, 67891
*Elset, Elset=Internal-1_Internal_Selection-1_Surface_Traction-1_S2
1672, 1821, 3062, 3638, 4504, 4838, 5921, 6134, 6497, 6823, 11046, 12269, 12283, 12301, 12339, 14396,
14439, 14573, 15023, 16556, 18715, 18910, 20489, 22470, 23363, 23416, 23730, 23753, 25500, 28239, 31303, 31429,
33564, 36272, 37964, 37970, 38337, 39372, 40000, 40001, 40132, 40144, 40332, 40406, 40459, 41004, 41771, 42396,
42419, 42428, 42445, 42603, 43365, 43832, 44337, 44373, 44387, 44481, 44689, 47343, 49360, 50184, 55204, 56142,
57041, 58480, 58514, 62785, 63074, 63298, 67452, 67493, 67501, 67570, 67892
**
** Surfaces ++++++++++++++++++++++++++++++++++++++++++++++++
**
*Surface, Name=Internal_Selection-1_Surface_Traction-1, Type=Element
Internal-1_Internal_Selection-1_Surface_Traction-1_S3, S3
Internal-1_Internal_Selection-1_Surface_Traction-1_S1, S1
Internal-1_Internal_Selection-1_Surface_Traction-1_S4, S4
Internal-1_Internal_Selection-1_Surface_Traction-1_S2, S2
**
** Physical constants ++++++++++++++++++++++++++++++++++++++
**
**
** Coordinate systems ++++++++++++++++++++++++++++++++++++++
**
**
** Materials +++++++++++++++++++++++++++++++++++++++++++++++
**
*Material, Name=S235
*Density
7.8E-09
*Elastic
210000, 0.28
*Expansion, Zero=20
1.1E-05
*Conductivity
14
*Specific heat
440000000
**
** Sections ++++++++++++++++++++++++++++++++++++++++++++++++
**
*Solid section, Elset=Internal_Selection-1_Vol_S235, Material=S235
**
** Pre-tension sections ++++++++++++++++++++++++++++++++++++
**
**
** Constraints +++++++++++++++++++++++++++++++++++++++++++++
**
**
** Surface interactions ++++++++++++++++++++++++++++++++++++
**
**
** Contact pairs +++++++++++++++++++++++++++++++++++++++++++
**
**
** Amplitudes ++++++++++++++++++++++++++++++++++++++++++++++
**
**
** Initial conditions ++++++++++++++++++++++++++++++++++++++
**
**
** Steps +++++++++++++++++++++++++++++++++++++++++++++++++++
**
**
** Step-1 ++++++++++++++++++++++++++++++++++++++++++++++++++
**
*Step
*Static, Solver=PARDISO
**
** Controls ++++++++++++++++++++++++++++++++++++++++++++++++
**
**
** Output frequency ++++++++++++++++++++++++++++++++++++++++
**
**
** Boundary conditions +++++++++++++++++++++++++++++++++++++
**
*Boundary, op=New
** Name: Fixed-1
*Boundary
Internal_Selection-1_Fixed-1, 1, 6, 0
**
** Loads +++++++++++++++++++++++++++++++++++++++++++++++++++
**
*Cload, op=New
*Dload, op=New
** Name: Surface_Traction-1
*Cload
1950, 1, 7.58897202E-001
1950, 2, 7.58897202E-001
1960, 1, 4.54894722E-001
1960, 2, 4.54894722E-001
1905, 1, 6.31184928E-001
1905, 2, 6.31184928E-001
175, 1, 2.47196386E-001
175, 2, 2.47196386E-001
1961, 1, 6.76219160E-001
1961, 2, 6.76219160E-001
176, 1, 2.51364181E-001
176, 2, 2.51364181E-001
1983, 1, 5.87596711E-001
1983, 2, 5.87596711E-001
83, 1, 2.94261489E-001
83, 2, 2.94261489E-001
1933, 1, 5.85288992E-001
1933, 2, 5.85288992E-001
1913, 1, 5.77903565E-001
1913, 2, 5.77903565E-001
** ... 482 like lines cut
**
** Defined fields ++++++++++++++++++++++++++++++++++++++++++
**
**
** History outputs +++++++++++++++++++++++++++++++++++++++++
**
**
** Field outputs +++++++++++++++++++++++++++++++++++++++++++
**
*Node file
RF, U
*El file
S, E, NOE
**
** End step ++++++++++++++++++++++++++++++++++++++++++++++++
**
*End step
