**
** Heading +++++++++++++++++++++++++++++++++++++++++++++++++
**
*Heading
Hash: LJpAUA1X, Date: 04/28/2026, Unit system: MM_TON_S_C
**
** Nodes +++++++++++++++++++++++++++++++++++++++++++++++++++
**
*Node
1, 6.58499985E+001, 1.34499976E+003, -4.00000000E+003
2, -8.14917114E+002, 2.39465723E+003, -4.00000000E+003
3, -8.26351807E+002, 2.32980762E+003, -4.06585010E+003
4, -8.37786560E+002, 2.26495801E+003, -4.00000000E+003
5, 0.00000000E+000, 1.34499976E+003, -4.06585010E+003
6, -6.58499985E+001, 1.34499976E+003, -4.00000000E+003
7, 0.00000000E+000, 1.34499976E+003, -3.93414990E+003
8, -8.26351807E+002, 2.32980762E+003, -3.93414990E+003
9, -8.26351807E+002, 2.32980762E+003, -4.06985010E+003
10, -8.38481140E+002, 2.26101880E+003, -4.00000000E+003
11, -8.26351807E+002, 2.32980762E+003, -3.93014990E+003
12, -8.14222473E+002, 2.39859644E+003, -4.00000000E+003
13, 6.98499985E+001, 1.34499976E+003, -4.00000000E+003
14, 0.00000000E+000, 1.34499976E+003, -4.06985010E+003
15, -6.98499985E+001, 1.34499976E+003, -4.00000000E+003
16, 0.00000000E+000, 1.34499976E+003, -3.93014990E+003
17, 0.00000000E+000, 0.00000000E+000, 6.58499985E+001
18, 0.00000000E+000, 1.34499976E+003, 6.58499985E+001
19, 6.58499985E+001, 1.34499976E+003, 0.00000000E+000
20, 0.00000000E+000, 1.34499976E+003, -6.58499985E+001
** ... 26059 like lines cut
**
** Elements ++++++++++++++++++++++++++++++++++++++++++++++++
**
*Element, Type=C3D4, Elset=Solid_part-1
1, 5904, 5263, 5897, 5896
2, 5903, 5904, 5896, 5310
3, 348, 5031, 5881, 347
4, 346, 5888, 5895, 5029
5, 5880, 5031, 5078, 5030
6, 5880, 5030, 5077, 5887
7, 5880, 5078, 5077, 5030
8, 5170, 5884, 5218, 5171
9, 5886, 5172, 5125, 5878
10, 5880, 5879, 5887, 5125
11, 5124, 5887, 5886, 5125
12, 5887, 5077, 5124, 5076
13, 5124, 5172, 5125, 5886
14, 5309, 5911, 5261, 5308
15, 5878, 5885, 5886, 5172
16, 5123, 5171, 5124, 5885
17, 5220, 5869, 5877, 5219
18, 5889, 270, 5311, 5882
19, 5883, 5218, 5217, 5884
20, 5263, 5905, 5897, 5898
** ... 79156 like lines cut
**
** Node sets +++++++++++++++++++++++++++++++++++++++++++++++
**
*Nset, Nset=Internal_Selection-1_Fixed-1
129, 130, 131, 132, 193, 194, 195, 196, 2605, 2606, 2607, 2608, 2609, 2610, 2611, 2612, 
2613, 2614, 2615, 2616, 2617, 2618, 2619, 2620, 2621, 2622, 2623, 2624, 2625, 2626, 2627, 2628, 
2629, 2630, 2631, 2632, 2633, 2634, 2635, 2636, 2637, 2638, 2639, 2640, 2641, 2642, 2643, 2644, 
2645, 2646, 2647, 2648, 2649, 2650, 2651, 2652, 2653, 2654, 2655, 2656, 2657, 2658, 2659, 2660, 
4573, 4574, 4575, 4576, 4577, 4578, 4579, 4580, 4581, 4582, 4583, 4584, 4585, 4586, 4587, 4588, 
4589, 4590, 4591, 4592, 4593, 4594, 4595, 4596, 4597, 4598, 4599, 4600, 4601, 4602, 4603, 4604, 
4605, 4606, 4607, 4608, 4609, 4610, 4611, 4612, 4613, 4614, 4615, 4616, 4617, 4618, 4619, 4620, 
4621, 4622, 4623, 4624, 4625, 4626, 4627, 4628, 15207, 15208, 15209, 15210, 15211, 15212, 15213, 15214, 
15215, 15216, 15217, 15218, 15219, 15220, 15221, 15222, 15223, 15224, 15225, 15226, 15227, 15228, 15229, 15230, 
15231, 15232, 15233, 15234, 15235, 15236, 15237, 15238, 15239, 15240, 15241, 15242, 15243, 15244, 15245, 15246, 
15247, 15248, 15249, 15250, 15251, 15252, 15253, 15254, 15255, 15256, 15257, 15258, 15259, 15260, 15261, 15262, 
15263, 15264, 15265, 15266, 15267, 15268, 15269, 15270, 15271, 15272, 15273, 15274, 15275, 15276, 15277, 15278, 
15279, 15280, 15281, 15282, 15283, 15284, 15285, 15286, 15287, 15288, 15289, 15290, 15291, 15292, 15293, 15294, 
15295, 15296, 15297, 15298, 15299, 15300, 15301, 15302, 15303, 15304, 15305, 15306, 15307, 15308, 15309, 15310, 
15311, 15312, 15313, 15314, 15315, 15316, 15317, 15318, 15319, 15320, 15321, 15322, 15323, 15324, 15325, 15326, 
15327, 15328, 15329, 15330, 15331, 15332, 15333, 15334, 15335, 15336, 15337, 15338, 15339, 15340, 15341, 15342, 
15343, 15344, 15345, 15346, 15347, 15348, 15349, 15350, 15351, 15352, 15353, 15354, 15355, 15356, 15357, 15358, 
15359, 15360, 15361, 15362, 15363, 15364, 15365, 15366, 15367, 15368, 15369, 15370, 15371, 15372, 15373, 15374, 
15375, 15376, 25473, 25474, 25475, 25476, 25477, 25478, 25479, 25480, 25481, 25482, 25483, 25484, 25485, 25486, 
25487, 25488, 25489, 25490, 25491, 25492, 25493, 25494, 25495, 25496, 25497, 25498, 25499, 25500, 25501, 25502, 
** ... 9 like lines cut
*Nset, Nset=Internal-1_Internal_Selection-1_Surface_Traction-1
45, 46, 105, 106, 715, 716, 717, 718, 723, 724, 725, 726, 1957, 1958, 1959, 1960, 
1961, 1962, 1963, 1964, 1965, 1966, 1967, 1968, 1969, 1970, 1971, 1972, 1973, 1974, 1975, 1976, 
1977, 1978, 1979, 1980, 1981, 1982, 1983, 1984, 1985, 1986, 1987, 1988, 1989, 1990, 1991, 1992, 
1993, 1994, 1995, 1996, 1997, 1998, 1999, 2000, 2001, 2002, 2003, 2004, 2005, 2006, 2007, 2008, 
2009, 2010, 2011, 2012, 2013, 2014, 2015, 2016, 2017, 2018, 2019, 2020, 2021, 2022, 2023, 2024, 
2025, 2026, 2027, 2028, 2029, 2030, 2031, 2032, 2033, 2034, 2035, 2036, 2037, 2038, 2039, 2040, 
2041, 2042, 2043, 2044, 2045, 2046, 2047, 2048, 2049, 2050, 2051, 2052, 2053, 2054, 2055, 2056, 
2057, 2058, 2059, 2060, 2061, 2062, 2063, 2064, 2065, 2066, 2067, 2068, 2069, 2070, 2071, 2072, 
2073, 2074, 2075, 2076, 2077, 2078, 2079, 2080, 2081, 2082, 2083, 2084, 2085, 2086, 2087, 2088, 
2089, 2090, 2091, 2092, 2093, 2094, 2095, 2096, 2097, 2098, 2099, 2100, 2101, 2102, 2103, 2104, 
2105, 2106, 2107, 2108, 2109, 2110, 2111, 2112, 2113, 2114, 2115, 2116, 2117, 2118, 2119, 2120, 
2121, 2122, 2123, 2124, 2125, 2126, 2127, 2128, 2129, 2130, 2131, 2132, 2133, 2134, 2135, 2136, 
2137, 2138, 2139, 2140, 2141, 2142, 2143, 2144, 2145, 2146, 2147, 2148, 2149, 2150, 2151, 2152, 
2153, 2154, 2155, 2156, 2157, 2158, 2159, 2160, 2161, 2162, 2163, 2164, 2165, 2166, 2167, 2168, 
2169, 2170, 2171, 2172, 2173, 2174, 2175, 2176, 2177, 2178, 2179, 2180, 2181, 2182, 2183, 2184, 
2185, 2186, 2187, 2188, 2189, 2190, 2191, 2192, 2193, 2194, 2195, 2196, 2197, 2198, 2199, 2200, 
2201, 2202, 2203, 2204, 2205, 2206, 2207, 2208, 2209, 2210, 2211, 2212, 2213, 2214, 2215, 2216, 
2217, 2218, 2219, 2220, 2221, 2222, 2223, 2224, 2239, 2240, 2241, 2242, 12880, 12881, 12882, 12883, 
12884, 12885, 12886, 12887, 12888, 12889, 12890, 12891, 12892, 12893, 12894, 12895, 12896, 12897, 12898, 12899, 
12900, 12901, 12902, 12903, 12904, 12905, 12906, 12907, 12908, 12909, 12910, 12911, 12912, 12913, 12914, 12915, 
** ... 67 like lines cut
**
** Element sets ++++++++++++++++++++++++++++++++++++++++++++
**
*Elset, Elset=Carport
1, 2, 3, 4, 5, 6, 7, 8, 9, 10, 11, 12, 13, 14, 15, 16, 
17, 18, 19, 20, 21, 22, 23, 24, 25, 26, 27, 28, 29, 30, 31, 32, 
33, 34, 35, 36, 37, 38, 39, 40, 41, 42, 43, 44, 45, 46, 47, 48, 
49, 50, 51, 52, 53, 54, 55, 56, 57, 58, 59, 60, 61, 62, 63, 64, 
65, 66, 67, 68, 69, 70, 71, 72, 73, 74, 75, 76, 77, 78, 79, 80, 
81, 82, 83, 84, 85, 86, 87, 88, 89, 90, 91, 92, 93, 94, 95, 96, 
97, 98, 99, 100, 101, 102, 103, 104, 105, 106, 107, 108, 109, 110, 111, 112, 
113, 114, 115, 116, 117, 118, 119, 120, 121, 122, 123, 124, 125, 126, 127, 128, 
129, 130, 131, 132, 133, 134, 135, 136, 137, 138, 139, 140, 141, 142, 143, 144, 
145, 146, 147, 148, 149, 150, 151, 152, 153, 154, 155, 156, 157, 158, 159, 160, 
161, 162, 163, 164, 165, 166, 167, 168, 169, 170, 171, 172, 173, 174, 175, 176, 
177, 178, 179, 180, 181, 182, 183, 184, 185, 186, 187, 188, 189, 190, 191, 192, 
193, 194, 195, 196, 197, 198, 199, 200, 201, 202, 203, 204, 205, 206, 207, 208, 
209, 210, 211, 212, 213, 214, 215, 216, 217, 218, 219, 220, 221, 222, 223, 224, 
225, 226, 227, 228, 229, 230, 231, 232, 233, 234, 235, 236, 237, 238, 239, 240, 
241, 242, 243, 244, 245, 246, 247, 248, 249, 250, 251, 252, 253, 254, 255, 256, 
257, 258, 259, 260, 261, 262, 263, 264, 265, 266, 267, 268, 269, 270, 271, 272, 
273, 274, 275, 276, 277, 278, 279, 280, 281, 282, 283, 284, 285, 286, 287, 288, 
289, 290, 291, 292, 293, 294, 295, 296, 297, 298, 299, 300, 301, 302, 303, 304, 
305, 306, 307, 308, 309, 310, 311, 312, 313, 314, 315, 316, 317, 318, 319, 320, 
** ... 4929 like lines cut
*Elset, Elset=Left
69772, 69773, 69774, 69775, 69776, 69777, 69778, 69779, 69780, 69781, 69782, 69783, 69784, 69785, 69786, 69787, 
69788, 69789, 69790, 69791, 69792, 69793, 69794, 69795, 69796, 69797, 69798, 69799, 69800, 69801, 69802, 69803, 
69804, 69805, 69806, 69807, 69808, 69809, 69810, 69811, 69812, 69813, 69814, 69815, 69816, 69817, 69818, 69819, 
69820, 69821, 69822, 69823, 69824, 69825, 69826, 69827, 69828, 69829, 69830, 69831, 69832, 69833, 69834, 69835, 
69836, 69837, 69838, 69839, 69840, 69841, 69842, 69843, 69844, 69845, 69846, 69847, 69848, 69849, 69850, 69851, 
69852, 69853, 69854, 69855, 69856, 69857, 69858, 69859, 69860, 69861, 69862, 69863, 69864, 69865, 69866, 69867, 
69868, 69869, 69870, 69871, 69872, 69873, 69874, 69875, 69876, 69877, 69878, 69879, 69880, 69881, 69882, 69883, 
69884, 69885, 69886, 69887, 69888, 69889, 69890, 69891, 69892, 69893, 69894, 69895, 69896, 69897, 69898, 69899, 
69900, 69901, 69902, 69903, 69904, 69905, 69906, 69907, 69908, 69909, 69910, 69911, 69912, 69913, 69914, 69915, 
69916, 69917, 69918, 69919, 69920, 69921, 69922, 69923, 69924, 69925, 69926, 69927, 69928, 69929, 69930, 69931, 
69932, 69933, 69934, 69935, 69936, 69937, 69938, 69939, 69940, 69941, 69942, 69943, 69944, 69945, 69946, 69947, 
69948, 69949, 69950, 69951, 69952, 69953, 69954, 69955, 69956, 69957, 69958, 69959, 69960, 69961, 69962, 69963, 
69964, 69965, 69966, 69967, 69968, 69969, 69970, 69971, 69972, 69973, 69974, 69975, 69976, 69977, 69978, 69979, 
69980, 69981, 69982, 69983, 69984, 69985, 69986, 69987, 69988, 69989, 69990, 69991, 69992, 69993, 69994, 69995, 
69996, 69997, 69998, 69999, 70000, 70001, 70002, 70003, 70004, 70005, 70006, 70007, 70008, 70009, 70010, 70011, 
70012, 70013, 70014, 70015, 70016, 70017, 70018, 70019, 70020, 70021, 70022, 70023, 70024, 70025, 70026, 70027, 
70028, 70029, 70030, 70031, 70032, 70033, 70034, 70035, 70036, 70037, 70038, 70039, 70040, 70041, 70042, 70043, 
70044, 70045, 70046, 70047, 70048, 70049, 70050, 70051, 70052, 70053, 70054, 70055, 70056, 70057, 70058, 70059, 
70060, 70061, 70062, 70063, 70064, 70065, 70066, 70067, 70068, 70069, 70070, 70071, 70072, 70073, 70074, 70075, 
70076, 70077, 70078, 70079, 70080, 70081, 70082, 70083, 70084, 70085, 70086, 70087, 70088, 70089, 70090, 70091, 
** ... 481 like lines cut
*Elset, Elset=Right
61963, 61964, 61965, 61966, 61967, 61968, 61969, 61970, 61971, 61972, 61973, 61974, 61975, 61976, 61977, 61978, 
61979, 61980, 61981, 61982, 61983, 61984, 61985, 61986, 61987, 61988, 61989, 61990, 61991, 61992, 61993, 61994, 
61995, 61996, 61997, 61998, 61999, 62000, 62001, 62002, 62003, 62004, 62005, 62006, 62007, 62008, 62009, 62010, 
62011, 62012, 62013, 62014, 62015, 62016, 62017, 62018, 62019, 62020, 62021, 62022, 62023, 62024, 62025, 62026, 
62027, 62028, 62029, 62030, 62031, 62032, 62033, 62034, 62035, 62036, 62037, 62038, 62039, 62040, 62041, 62042, 
62043, 62044, 62045, 62046, 62047, 62048, 62049, 62050, 62051, 62052, 62053, 62054, 62055, 62056, 62057, 62058, 
62059, 62060, 62061, 62062, 62063, 62064, 62065, 62066, 62067, 62068, 62069, 62070, 62071, 62072, 62073, 62074, 
62075, 62076, 62077, 62078, 62079, 62080, 62081, 62082, 62083, 62084, 62085, 62086, 62087, 62088, 62089, 62090, 
62091, 62092, 62093, 62094, 62095, 62096, 62097, 62098, 62099, 62100, 62101, 62102, 62103, 62104, 62105, 62106, 
62107, 62108, 62109, 62110, 62111, 62112, 62113, 62114, 62115, 62116, 62117, 62118, 62119, 62120, 62121, 62122, 
62123, 62124, 62125, 62126, 62127, 62128, 62129, 62130, 62131, 62132, 62133, 62134, 62135, 62136, 62137, 62138, 
62139, 62140, 62141, 62142, 62143, 62144, 62145, 62146, 62147, 62148, 62149, 62150, 62151, 62152, 62153, 62154, 
62155, 62156, 62157, 62158, 62159, 62160, 62161, 62162, 62163, 62164, 62165, 62166, 62167, 62168, 62169, 62170, 
62171, 62172, 62173, 62174, 62175, 62176, 62177, 62178, 62179, 62180, 62181, 62182, 62183, 62184, 62185, 62186, 
62187, 62188, 62189, 62190, 62191, 62192, 62193, 62194, 62195, 62196, 62197, 62198, 62199, 62200, 62201, 62202, 
62203, 62204, 62205, 62206, 62207, 62208, 62209, 62210, 62211, 62212, 62213, 62214, 62215, 62216, 62217, 62218, 
62219, 62220, 62221, 62222, 62223, 62224, 62225, 62226, 62227, 62228, 62229, 62230, 62231, 62232, 62233, 62234, 
62235, 62236, 62237, 62238, 62239, 62240, 62241, 62242, 62243, 62244, 62245, 62246, 62247, 62248, 62249, 62250, 
62251, 62252, 62253, 62254, 62255, 62256, 62257, 62258, 62259, 62260, 62261, 62262, 62263, 62264, 62265, 62266, 
62267, 62268, 62269, 62270, 62271, 62272, 62273, 62274, 62275, 62276, 62277, 62278, 62279, 62280, 62281, 62282, 
** ... 469 like lines cut
*Elset, Elset=Internal-1_Internal_Selection-1_Surface_Traction-1_S4
30184, 30190, 30200, 30246, 30255, 30256, 30290, 30349, 30380, 30409, 30410, 30411, 30418, 30423, 30458, 30482, 
30500, 30517, 30549, 30556, 30574, 30577, 30587, 30589, 30601, 30646, 30653, 30660, 30676, 30703, 30721, 30734, 
30736, 30760, 30775, 30797, 30824, 30825, 30881, 30884, 30895, 30908, 30922, 30939, 30960, 30987, 30991, 31007, 
31009, 31011, 31012, 31019, 31083, 31085, 31090, 31104, 31121, 31124, 31183, 31262, 31264, 31276, 31278, 31295, 
31307, 31339, 31408, 31412, 31461, 31476, 31479, 31483, 31489, 31493, 31533, 31544, 31545, 31567, 31585, 31586, 
31595, 31598, 31610, 31615, 31627, 31629, 31656, 31666, 31681, 31686, 31702, 31707, 31722, 31733, 31745, 31749, 
31756, 31767, 31796, 31821, 31823, 31883, 31895, 31898, 31935, 31954, 31955, 31960, 31974, 31983, 31987, 32009, 
32018, 32019, 32020, 32037, 32048, 32099, 32104, 32129, 32139, 32171, 32174, 32200, 32205, 32211, 32222, 32226, 
32230, 32232, 32243, 32261, 32283, 32294, 32368, 32372, 32375, 32381, 32382, 32389, 32395, 32406, 32407, 32420, 
32428, 32432, 32438, 32445, 32446, 32464, 32469, 32484, 32506, 32508, 32513, 32527, 32530, 32531, 32535, 32554, 
32556, 32588, 32589, 32594, 32598, 32615, 32620, 32626, 32630, 32637, 32648, 32681, 32682, 32736, 32777, 32778, 
32804, 32809, 32830, 32866, 32916, 32919, 32920, 32921, 32938, 32955, 32961, 32964, 32982, 32988, 33009, 33019, 
33026, 33035, 33041, 33106, 33114, 33116, 33153, 33162, 33190, 33193, 33196, 33213, 33249, 33251, 33264, 33305, 
33323, 33348, 33373, 33397, 33402, 33420, 33429, 33430, 33432, 33477, 33479, 33519, 33532, 33539, 33587, 33618, 
33629, 33642, 33650, 33655, 33658, 33688, 33690, 33691, 33700, 33711, 33755, 33776, 33799, 33803, 33804, 33821, 
33843, 33865, 33872, 33885, 33899, 33901, 33902, 33921, 33932, 33948, 33949, 33979, 33989, 34003, 34013, 34033, 
34041, 34059, 34061, 34069, 34092, 34147, 34149, 34165, 34167, 34241, 34255, 34300, 34311, 34316, 34319, 34325, 
34330, 34342, 34345, 34358, 34363, 34381, 34408, 34449, 34452, 34455, 34464, 34485, 34493, 34518, 34537, 34557, 
34562, 34582, 34626, 34691, 34715, 34728, 34748, 34760, 34785, 34791, 34800, 34848, 34855, 34870, 34910, 34934, 
34938, 34951, 34982, 35025, 35056, 35060, 35061, 35062, 35078, 35085, 35086, 35091, 35102, 35153, 35156, 35162, 
** ... 25 like lines cut
*Elset, Elset=Internal-1_Internal_Selection-1_Surface_Traction-1_S1
30185, 30197, 30274, 30283, 30299, 30309, 30321, 30322, 30501, 30508, 30518, 30527, 30537, 30551, 30558, 30568, 
30570, 30619, 30643, 30645, 30830, 30835, 30965, 31046, 31114, 31270, 31292, 31329, 31406, 31477, 31485, 31495, 
31513, 31528, 31550, 31569, 31578, 31583, 31591, 31630, 31671, 31688, 31927, 31942, 31958, 32054, 32066, 32135, 
32152, 32173, 32179, 32182, 32216, 32234, 32422, 32497, 32525, 32536, 32561, 32565, 32574, 32582, 32603, 32614, 
32672, 32690, 32698, 32701, 32714, 32745, 32764, 32922, 32948, 32956, 32972, 33024, 33028, 33038, 33045, 33084, 
33103, 33104, 33130, 33149, 33161, 33163, 33238, 33258, 33261, 33288, 33297, 33308, 33386, 33453, 33478, 33482, 
33488, 33534, 33543, 33550, 33586, 33639, 33670, 33676, 33694, 33740, 33762, 33766, 33829, 33840, 33849, 33877, 
33907, 33910, 33951, 33958, 33985, 33995, 34007, 34023, 34028, 34085, 34106, 34157, 34160, 34183, 34184, 34188, 
34232, 34274, 34294, 34384, 34461, 34470, 34472, 34542, 34593, 34600, 34610, 34621, 34624, 34777, 34831, 34837, 
34957, 35013, 35032, 35033, 35065, 35090, 35123, 35143, 35227, 35243, 35254, 35312, 35439, 35498, 35574, 35580, 
35613, 35618, 35700, 35805, 35808, 35811, 35828, 35931, 35956, 35970, 35972, 35977, 36088, 36122, 36124, 36133, 
36156, 36168, 36179, 36218, 36221, 36268, 36304, 36314, 36317, 36318, 36319, 36338, 36410, 36458, 36556, 36630, 
36674, 36812, 36838, 36857, 36964, 36977, 36998, 37049, 37092, 37147, 37185, 37211, 37230, 37234, 37238, 37323, 
37339, 37381, 37387, 37438, 37467, 37476, 37542, 37553, 37556, 37633, 37658, 37669, 37672, 37702, 37710, 37733, 
37799, 37806, 37812, 37826, 37980, 37987, 38008, 38027, 38049, 38095, 38107, 38110, 38125, 38132, 38155, 38161, 
38170, 38171, 38200, 38206, 38213, 38228, 38236, 38285, 38317, 38318, 38319, 38321, 38332, 38447, 38451, 38498, 
38505, 38535, 38537, 38544, 38575, 38579, 38582, 38619, 38727, 38745, 38757, 38777, 38800, 38857, 38871, 38904, 
38905, 38947, 38963, 38970, 38993, 39023, 39027, 39030, 39035, 39057, 39059, 39079, 39121, 39158, 39198, 39262, 
39425, 39450, 39461
*Elset, Elset=Internal-1_Internal_Selection-1_Surface_Traction-1_S2
30191, 30204, 30212, 30222, 30238, 30285, 30293, 30317, 30338, 30396, 30431, 30434, 30447, 30467, 30474, 30492, 
30495, 30512, 30566, 30579, 30585, 30586, 30607, 30642, 30654, 30671, 30704, 30717, 30813, 30818, 30823, 30841, 
30896, 30907, 30912, 30914, 30919, 30926, 30953, 30957, 30977, 30979, 30982, 30997, 31004, 31019, 31095, 31108, 
31109, 31117, 31120, 31127, 31128, 31129, 31233, 31251, 31266, 31321, 31341, 31350, 31359, 31367, 31376, 31385, 
31397, 31399, 31420, 31428, 31438, 31492, 31530, 31548, 31560, 31563, 31573, 31604, 31621, 31622, 31632, 31660, 
31674, 31678, 31709, 31719, 31720, 31728, 31766, 31795, 31821, 31856, 31860, 31867, 31880, 31892, 31897, 31903, 
31906, 31915, 31924, 31944, 31973, 31976, 32000, 32001, 32022, 32046, 32065, 32077, 32087, 32092, 32098, 32109, 
32110, 32112, 32116, 32128, 32131, 32150, 32184, 32202, 32208, 32214, 32227, 32235, 32246, 32247, 32250, 32257, 
32262, 32285, 32288, 32325, 32326, 32359, 32369, 32377, 32401, 32404, 32427, 32449, 32454, 32504, 32516, 32522, 
32553, 32571, 32573, 32584, 32596, 32634, 32683, 32713, 32727, 32728, 32729, 32731, 32735, 32752, 32754, 32782, 
32783, 32807, 32913, 32915, 32942, 32965, 32977, 32980, 32997, 33015, 33025, 33029, 33039, 33043, 33053, 33060, 
33066, 33077, 33185, 33212, 33252, 33266, 33272, 33277, 33309, 33320, 33321, 33335, 33341, 33404, 33422, 33433, 
33434, 33444, 33448, 33458, 33481, 33486, 33496, 33501, 33515, 33530, 33533, 33559, 33578, 33579, 33580, 33589, 
33590, 33591, 33637, 33644, 33656, 33692, 33695, 33699, 33704, 33709, 33715, 33721, 33722, 33730, 33731, 33748, 
33750, 33760, 33782, 33802, 33813, 33820, 33827, 33835, 33862, 33868, 33887, 33895, 33914, 33943, 33953, 33964, 
33965, 34005, 34010, 34032, 34044, 34050, 34053, 34054, 34060, 34064, 34076, 34121, 34126, 34130, 34142, 34173, 
34192, 34201, 34211, 34222, 34242, 34266, 34278, 34286, 34290, 34296, 34299, 34338, 34341, 34364, 34374, 34379, 
34386, 34423, 34434, 34473, 34492, 34508, 34512, 34519, 34520, 34586, 34589, 34591, 34595, 34618, 34625, 34653, 
34657, 34683, 34695, 34697, 34699, 34709, 34719, 34735, 34744, 34745, 34751, 34804, 34808, 34835, 34873, 34885, 
34889, 34921, 34924, 34931, 34946, 34968, 35000, 35004, 35037, 35040, 35048, 35058, 35080, 35084, 35129, 35139, 
** ... 23 like lines cut
*Elset, Elset=Internal-1_Internal_Selection-1_Surface_Traction-1_S3
30250, 30269, 30270, 30318, 30347, 30356, 30359, 30371, 30395, 30417, 30440, 30477, 30516, 30546, 30562, 30564, 
30567, 30581, 30604, 30606, 30633, 30688, 30700, 30718, 30743, 30799, 30816, 30832, 30843, 30849, 30856, 30874, 
30880, 30890, 30892, 30970, 30991, 31015, 31023, 31042, 31047, 31049, 31054, 31126, 31268, 31274, 31288, 31289, 
31298, 31303, 31314, 31322, 31325, 31327, 31349, 31353, 31356, 31357, 31366, 31395, 31416, 31422, 31425, 31429, 
31435, 31445, 31459, 31471, 31472, 31475, 31496, 31499, 31501, 31506, 31508, 31509, 31511, 31515, 31523, 31525, 
31536, 31559, 31568, 31570, 31584, 31589, 31600, 31605, 31613, 31620, 31637, 31641, 31645, 31663, 31680, 31693, 
31703, 31713, 31724, 31726, 31727, 31735, 31748, 31754, 31755, 31804, 31833, 31834, 31844, 31846, 31859, 31868, 
31874, 31878, 31885, 31899, 31900, 31922, 31930, 31936, 31938, 31940, 31953, 31959, 31962, 31968, 31975, 31982, 
31993, 31995, 31998, 32025, 32030, 32034, 32036, 32071, 32076, 32102, 32108, 32118, 32136, 32138, 32141, 32145, 
32157, 32158, 32185, 32195, 32212, 32218, 32228, 32236, 32239, 32251, 32252, 32256, 32260, 32263, 32293, 32295, 
32324, 32335, 32357, 32360, 32388, 32403, 32433, 32453, 32470, 32471, 32474, 32477, 32520, 32542, 32567, 32591, 
32599, 32602, 32613, 32618, 32632, 32639, 32660, 32667, 32676, 32679, 32688, 32697, 32718, 32723, 32748, 32756, 
32773, 32776, 32781, 32784, 32786, 32787, 32790, 32802, 32814, 32819, 32855, 32876, 32887, 32888, 32889, 32896, 
32924, 32930, 32957, 32963, 32981, 32990, 33000, 33004, 33016, 33037, 33050, 33054, 33063, 33081, 33085, 33097, 
33105, 33108, 33118, 33122, 33123, 33139, 33144, 33146, 33158, 33159, 33172, 33202, 33205, 33208, 33215, 33225, 
33230, 33233, 33246, 33247, 33260, 33287, 33289, 33294, 33296, 33299, 33330, 33333, 33340, 33346, 33352, 33379, 
33408, 33418, 33435, 33442, 33446, 33464, 33470, 33495, 33508, 33510, 33514, 33516, 33549, 33552, 33554, 33558, 
33564, 33568, 33573, 33576, 33596, 33599, 33605, 33608, 33611, 33614, 33623, 33631, 33640, 33652, 33659, 33668, 
33686, 33701, 33706, 33710, 33712, 33717, 33719, 33720, 33724, 33764, 33781, 33791, 33806, 33816, 33818, 33831, 
33832, 33833, 33838, 33863, 33871, 33874, 33876, 33881, 33898, 33930, 33936, 33941, 33963, 33973, 33974, 33975, 
** ... 47 like lines cut
*Elset, Elset=Internal_Selection-1_Solid_Section-1
Solid_part-1
**
** Surfaces ++++++++++++++++++++++++++++++++++++++++++++++++
**
*Surface, Name=Internal_Selection-1_Surface_Traction-1, Type=Element
Internal-1_Internal_Selection-1_Surface_Traction-1_S4, S4
Internal-1_Internal_Selection-1_Surface_Traction-1_S1, S1
Internal-1_Internal_Selection-1_Surface_Traction-1_S2, S2
Internal-1_Internal_Selection-1_Surface_Traction-1_S3, S3
**
** Physical constants ++++++++++++++++++++++++++++++++++++++
**
**
** Coordinate systems ++++++++++++++++++++++++++++++++++++++
**
**
** Materials +++++++++++++++++++++++++++++++++++++++++++++++
**
*Material, Name=S235
*Density
7.8E-09
*Elastic
210000, 0.28
*Expansion, Zero=20
1.1E-05
*Conductivity
14
*Specific heat
440000000
**
** Sections ++++++++++++++++++++++++++++++++++++++++++++++++
**
*Solid section, Elset=Internal_Selection-1_Solid_Section-1, Material=S235
**
** Pre-tension sections ++++++++++++++++++++++++++++++++++++
**
**
** Constraints +++++++++++++++++++++++++++++++++++++++++++++
**
**
** Surface interactions ++++++++++++++++++++++++++++++++++++
**
**
** Contact pairs +++++++++++++++++++++++++++++++++++++++++++
**
**
** Amplitudes ++++++++++++++++++++++++++++++++++++++++++++++
**
**
** Initial conditions ++++++++++++++++++++++++++++++++++++++
**
**
** Steps +++++++++++++++++++++++++++++++++++++++++++++++++++
**
**
** Step-1 ++++++++++++++++++++++++++++++++++++++++++++++++++
**
*Step
*Static, Solver=Pardiso
**
** Controls ++++++++++++++++++++++++++++++++++++++++++++++++
**
**
** Output frequency ++++++++++++++++++++++++++++++++++++++++
**
**
** Boundary conditions +++++++++++++++++++++++++++++++++++++
**
*Boundary, op=New
** Name: Fixed-1
*Boundary
Internal_Selection-1_Fixed-1, 1, 6, 0
**
** Loads +++++++++++++++++++++++++++++++++++++++++++++++++++
**
*Cload, op=New
*Dload, op=New
** Name: Surface_Traction-1
*Cload
13533, 2, -1.66056941E-001
13532, 2, -1.76618962E-001
13406, 2, -1.53550386E-001
13783, 2, -1.16077401E-001
13784, 2, -1.49415630E-001
2168, 2, -1.39615739E-001
13990, 2, -3.95875353E-002
13509, 2, -1.73513566E-001
13982, 2, -5.60676284E-002
13588, 2, -1.51846818E-001
13919, 2, -5.89890177E-002
13587, 2, -1.73271541E-001
2172, 2, -1.46105483E-001
13918, 2, -5.43758124E-002
2171, 2, -1.41947030E-001
13917, 2, -6.25169472E-002
1963, 2, -1.63421423E-001
13261, 2, -1.38015772E-001
1964, 2, -1.59139963E-001
13456, 2, -1.88494801E-001
** ... 1367 like lines cut
**
** Defined fields ++++++++++++++++++++++++++++++++++++++++++
**
**
** History outputs +++++++++++++++++++++++++++++++++++++++++
**
**
** Field outputs +++++++++++++++++++++++++++++++++++++++++++
**
*Node file
RF, U
*El file
S, E, NOE
**
** End step ++++++++++++++++++++++++++++++++++++++++++++++++
**
*End step
