**
** Heading +++++++++++++++++++++++++++++++++++++++++++++++++
**
*Heading
Hash: Pq7IfWeO, Date: 04/28/2026, Unit system: MM_TON_S_C
**
** Nodes +++++++++++++++++++++++++++++++++++++++++++++++++++
**
*Node
1, -3.20000000E+001, -4.00000000E-016, 3.90000000E-015
2, 3.20000000E+001, -4.00000000E-016, 0.00000000E+000
3, -3.20000000E+001, -6.00000000E+000, 3.90000000E-015
4, 3.20000000E+001, -6.00000000E+000, 0.00000000E+000
5, -2.90000000E+001, -6.00000000E+000, 3.60000000E-015
6, 2.90000000E+001, -6.00000000E+000, 0.00000000E+000
7, -2.90000000E+001, -7.50000000E+000, 3.60000000E-015
8, 2.90000000E+001, -7.50000000E+000, 0.00000000E+000
9, -3.20000000E+001, -7.50000000E+000, 3.90000000E-015
10, 3.20000000E+001, -7.50000000E+000, 0.00000000E+000
11, -3.20000000E+001, -1.05000000E+001, 3.90000000E-015
12, 3.20000000E+001, -1.05000000E+001, 0.00000000E+000
13, -2.80000000E+001, -1.05000000E+001, 3.40000000E-015
14, 2.80000000E+001, -1.05000000E+001, 0.00000000E+000
15, -2.80000000E+001, -1.25000000E+001, 3.40000000E-015
16, 2.80000000E+001, -1.25000000E+001, 0.00000000E+000
17, -3.20000000E+001, -1.25000000E+001, 3.90000000E-015
18, 3.20000000E+001, -1.25000000E+001, 0.00000000E+000
19, -3.20000000E+001, -1.55000000E+001, 3.90000000E-015
20, 3.20000000E+001, -1.55000000E+001, 0.00000000E+000
** ... 3262 like lines cut
**
** Elements ++++++++++++++++++++++++++++++++++++++++++++++++
**
*Element, Type=C3D4, Elset=Solid_part-1
1, 867, 1624, 1660, 1591
2, 2198, 2197, 514, 513
3, 2990, 2925, 2346, 2970
4, 2201, 1669, 1670, 2165
5, 45, 450, 449, 598
6, 2509, 2587, 2590, 3239
7, 424, 319, 346, 425
8, 842, 1556, 869, 1592
9, 933, 508, 507, 932
10, 2305, 1986, 839, 838
11, 188, 2916, 2894, 2870
12, 423, 422, 1747, 596
13, 1678, 1660, 867, 1624
14, 303, 3163, 3157, 3154
15, 595, 1966, 1955, 3253
16, 1233, 1259, 1183, 1182
17, 2046, 1646, 2058, 1647
18, 1881, 1888, 2297, 1975
19, 2984, 2386, 3009, 3008
20, 2040, 1701, 1689, 2017
** ... 10007 like lines cut
**
** Node sets +++++++++++++++++++++++++++++++++++++++++++++++
**
*Nset, Nset=Internal_Selection-1_Displacement_Rotation-1
21, 22, 23, 24, 25, 26, 59, 60, 61, 62, 63, 64, 69, 70, 71, 72, 
384, 385, 386, 387, 388, 389, 390, 391, 392, 393, 394, 395, 396, 397, 398, 399, 
400, 401, 402, 403, 404, 405, 406, 407, 408, 688, 689, 690, 691, 692, 693, 694, 
695, 696, 697, 698, 699, 700, 701, 702, 703, 704, 705, 706, 707, 708, 709, 710, 
711, 712, 732, 733, 734, 735, 736, 737, 738, 739, 740, 741, 742, 743, 744, 745, 
746, 747, 748, 749, 750, 751, 752, 753, 754, 755, 756, 757, 775, 816, 1174, 1175, 
1457, 1458, 1459, 1460, 1461, 1462, 1463, 1464, 1465, 1466, 1467, 1468, 1469, 1470, 1471, 1472, 
1473, 1474, 1475, 1476, 1477, 1878, 1879, 1880, 1881, 1882, 1883, 1884, 1885, 1886, 1887, 1888, 
1889, 1890, 1891, 1892, 1893, 1894, 1895, 1896, 1897, 1908, 1909, 1910, 1911, 1912, 1913, 1914, 
1915, 1916, 1917, 1918, 1919, 1920, 1921, 1922, 1923, 1924, 1925, 1926, 1927, 1928, 1929, 1930, 
1931, 1932, 1933, 1971, 1972
**
** Element sets ++++++++++++++++++++++++++++++++++++++++++++
**
*Elset, Elset=Internal_Selection-1_Solid_Section-1
Solid_part-1
**
** Surfaces ++++++++++++++++++++++++++++++++++++++++++++++++
**
**
** Physical constants ++++++++++++++++++++++++++++++++++++++
**
**
** Coordinate systems ++++++++++++++++++++++++++++++++++++++
**
**
** Materials +++++++++++++++++++++++++++++++++++++++++++++++
**
*Material, Name=S235
*Density
7.8E-09
*Elastic
210000, 0.28
*Expansion, Zero=20
1.1E-05
*Conductivity
14
*Specific heat
440000000
**
** Sections ++++++++++++++++++++++++++++++++++++++++++++++++
**
*Solid section, Elset=Internal_Selection-1_Solid_Section-1, Material=S235
**
** Pre-tension sections ++++++++++++++++++++++++++++++++++++
**
**
** Constraints +++++++++++++++++++++++++++++++++++++++++++++
**
**
** Surface interactions ++++++++++++++++++++++++++++++++++++
**
**
** Contact pairs +++++++++++++++++++++++++++++++++++++++++++
**
**
** Amplitudes ++++++++++++++++++++++++++++++++++++++++++++++
**
*Amplitude, Name=Tabular-1
0, 0, 1, 100
**
** Initial conditions ++++++++++++++++++++++++++++++++++++++
**
**
** Steps +++++++++++++++++++++++++++++++++++++++++++++++++++
**
**
** Step-1 ++++++++++++++++++++++++++++++++++++++++++++++++++
**
*Step, Nlgeom, Inc=100
*Static, Solver=Pardiso
0.2, 1, 1E-05, 0.2
**
** Controls ++++++++++++++++++++++++++++++++++++++++++++++++
**
**
** Output frequency ++++++++++++++++++++++++++++++++++++++++
**
**
** Boundary conditions +++++++++++++++++++++++++++++++++++++
**
*Boundary, op=New
** Name: Displacement_Rotation-1
*Boundary, Amplitude=Tabular-1
Internal_Selection-1_Displacement_Rotation-1, 1, 1, 0
Internal_Selection-1_Displacement_Rotation-1, 2, 2, 1
Internal_Selection-1_Displacement_Rotation-1, 3, 3, 0
**
** Loads +++++++++++++++++++++++++++++++++++++++++++++++++++
**
*Cload, op=New
*Dload, op=New
**
** Defined fields ++++++++++++++++++++++++++++++++++++++++++
**
**
** History outputs +++++++++++++++++++++++++++++++++++++++++
**
**
** Field outputs +++++++++++++++++++++++++++++++++++++++++++
**
*Node file
RF, U
*El file
S, E, NOE
**
** End step ++++++++++++++++++++++++++++++++++++++++++++++++
**
*End step
