**
** Heading +++++++++++++++++++++++++++++++++++++++++++++++++
**
*Heading
Hash: Jz7aQjPn, Date: 04/28/2026, Unit system: MM_TON_S_C
**
** Nodes +++++++++++++++++++++++++++++++++++++++++++++++++++
**
*Node
2210, 2.00000000E+001, 1.00000000E+001, 0.00000000E+000
2211, 2.00000000E+001, 0.00000000E+000, 0.00000000E+000
2212, 1.00000000E+002, 0.00000000E+000, 0.00000000E+000
2213, 1.00000000E+002, 1.00000000E+001, 0.00000000E+000
2214, 2.00000000E+001, 9.00000000E+000, 0.00000000E+000
2215, 2.00000000E+001, 8.00000000E+000, 0.00000000E+000
2216, 2.00000000E+001, 7.00000000E+000, 0.00000000E+000
2217, 2.00000000E+001, 6.00000000E+000, 0.00000000E+000
2218, 2.00000000E+001, 5.00000000E+000, 0.00000000E+000
2219, 2.00000000E+001, 4.00000000E+000, 0.00000000E+000
2220, 2.00000000E+001, 3.00000000E+000, 0.00000000E+000
2221, 2.00000000E+001, 2.00000000E+000, 0.00000000E+000
2222, 2.00000000E+001, 1.00000000E+000, 0.00000000E+000
2223, 2.00000000E+001, 9.50000000E+000, 0.00000000E+000
2224, 2.00000000E+001, 8.50000000E+000, 0.00000000E+000
2225, 2.00000000E+001, 7.50000000E+000, 0.00000000E+000
2226, 2.00000000E+001, 6.50000000E+000, 0.00000000E+000
2227, 2.00000000E+001, 5.50000000E+000, 0.00000000E+000
2228, 2.00000000E+001, 4.50000000E+000, 0.00000000E+000
2229, 2.00000000E+001, 3.50000000E+000, 0.00000000E+000
** ... 2561 like lines cut
**
** Elements ++++++++++++++++++++++++++++++++++++++++++++++++
**
*Element, Type=S8, Elset=Shell_part-1
361, 2210, 2214, 2570, 2489, 2223, 3281, 3282, 2569
362, 2489, 2570, 2571, 2488, 3282, 3283, 3284, 2568
363, 2488, 2571, 2572, 2487, 3284, 3285, 3286, 2567
364, 2487, 2572, 2573, 2486, 3286, 3287, 3288, 2566
365, 2486, 2573, 2574, 2485, 3288, 3289, 3290, 2565
366, 2485, 2574, 2575, 2484, 3290, 3291, 3292, 2564
367, 2484, 2575, 2576, 2483, 3292, 3293, 3294, 2563
368, 2483, 2576, 2577, 2482, 3294, 3295, 3296, 2562
369, 2482, 2577, 2578, 2481, 3296, 3297, 3298, 2561
370, 2481, 2578, 2579, 2480, 3298, 3299, 3300, 2560
371, 2480, 2579, 2580, 2479, 3300, 3301, 3302, 2559
372, 2479, 2580, 2581, 2478, 3302, 3303, 3304, 2558
373, 2478, 2581, 2582, 2477, 3304, 3305, 3306, 2557
374, 2477, 2582, 2583, 2476, 3306, 3307, 3308, 2556
375, 2476, 2583, 2584, 2475, 3308, 3309, 3310, 2555
376, 2475, 2584, 2585, 2474, 3310, 3311, 3312, 2554
377, 2474, 2585, 2586, 2473, 3312, 3313, 3314, 2553
378, 2473, 2586, 2587, 2472, 3314, 3315, 3316, 2552
379, 2472, 2587, 2588, 2471, 3316, 3317, 3318, 2551
380, 2471, 2588, 2589, 2470, 3318, 3319, 3320, 2550
** ... 780 like lines cut
**
** Node sets +++++++++++++++++++++++++++++++++++++++++++++++
**
*Nset, Nset=Internal_Selection-1_NODE_SELECTION-1
2396
*Nset, Nset=Internal-1_Internal_Selection-1_Surface_Traction-1
2212, 2213, 2392, 2393, 2394, 2395, 2396, 2397, 2398, 2399, 2400, 2401, 2402, 2403, 2404, 2405, 
2406, 2407, 2408, 2409, 2410
*Nset, Nset=Internal_Selection-1_Displacement_Rotation-1
2210, 2211, 2214, 2215, 2216, 2217, 2218, 2219, 2220, 2221, 2222, 2223, 2224, 2225, 2226, 2227, 
2228, 2229, 2230, 2231, 2232
**
** Element sets ++++++++++++++++++++++++++++++++++++++++++++
**
*Elset, Elset=Internal-1_Internal_Selection-1_Surface_Traction-1_S5
440, 520, 600, 680, 760, 840, 920, 1000, 1080, 1160
*Elset, Elset=Internal_Selection-1_Shell_Section-1
361, 362, 363, 364, 365, 366, 367, 368, 369, 370, 371, 372, 373, 374, 375, 376, 
377, 378, 379, 380, 381, 382, 383, 384, 385, 386, 387, 388, 389, 390, 391, 392, 
393, 394, 395, 396, 397, 398, 399, 400, 401, 402, 403, 404, 405, 406, 407, 408, 
409, 410, 411, 412, 413, 414, 415, 416, 417, 418, 419, 420, 421, 422, 423, 424, 
425, 426, 427, 428, 429, 430, 431, 432, 433, 434, 435, 436, 437, 438, 439, 440, 
441, 442, 443, 444, 445, 446, 447, 448, 449, 450, 451, 452, 453, 454, 455, 456, 
457, 458, 459, 460, 461, 462, 463, 464, 465, 466, 467, 468, 469, 470, 471, 472, 
473, 474, 475, 476, 477, 478, 479, 480, 481, 482, 483, 484, 485, 486, 487, 488, 
489, 490, 491, 492, 493, 494, 495, 496, 497, 498, 499, 500, 501, 502, 503, 504, 
505, 506, 507, 508, 509, 510, 511, 512, 513, 514, 515, 516, 517, 518, 519, 520, 
521, 522, 523, 524, 525, 526, 527, 528, 529, 530, 531, 532, 533, 534, 535, 536, 
537, 538, 539, 540, 541, 542, 543, 544, 545, 546, 547, 548, 549, 550, 551, 552, 
553, 554, 555, 556, 557, 558, 559, 560, 561, 562, 563, 564, 565, 566, 567, 568, 
569, 570, 571, 572, 573, 574, 575, 576, 577, 578, 579, 580, 581, 582, 583, 584, 
585, 586, 587, 588, 589, 590, 591, 592, 593, 594, 595, 596, 597, 598, 599, 600, 
601, 602, 603, 604, 605, 606, 607, 608, 609, 610, 611, 612, 613, 614, 615, 616, 
617, 618, 619, 620, 621, 622, 623, 624, 625, 626, 627, 628, 629, 630, 631, 632, 
633, 634, 635, 636, 637, 638, 639, 640, 641, 642, 643, 644, 645, 646, 647, 648, 
649, 650, 651, 652, 653, 654, 655, 656, 657, 658, 659, 660, 661, 662, 663, 664, 
665, 666, 667, 668, 669, 670, 671, 672, 673, 674, 675, 676, 677, 678, 679, 680, 
** ... 30 like lines cut
**
** Surfaces ++++++++++++++++++++++++++++++++++++++++++++++++
**
*Surface, Name=Internal_Selection-1_Surface_Traction-1, Type=Element
Internal-1_Internal_Selection-1_Surface_Traction-1_S5, S5
**
** Physical constants ++++++++++++++++++++++++++++++++++++++
**
**
** Coordinate systems ++++++++++++++++++++++++++++++++++++++
**
**
** Materials +++++++++++++++++++++++++++++++++++++++++++++++
**
*Material, Name=S235
*Density
7.8E-09
*Elastic
210000, 0.28
*Expansion, Zero=20
1.1E-05
*Conductivity
14
*Specific heat
440000000
**
** Sections ++++++++++++++++++++++++++++++++++++++++++++++++
**
*Shell section, Elset=Internal_Selection-1_Shell_Section-1, Material=S235, Offset=0
1.5
**
** Pre-tension sections ++++++++++++++++++++++++++++++++++++
**
**
** Constraints +++++++++++++++++++++++++++++++++++++++++++++
**
**
** Surface interactions ++++++++++++++++++++++++++++++++++++
**
*Surface interaction, Name=Surface_Interaction-1
*Surface behavior, Pressure-overclosure=Tied
10000000
*Friction
0.1
**
** Contact pairs +++++++++++++++++++++++++++++++++++++++++++
**
**
** Amplitudes ++++++++++++++++++++++++++++++++++++++++++++++
**
*Amplitude, Name=TEST_TABULAR
0, 0
**
** Initial conditions ++++++++++++++++++++++++++++++++++++++
**
**
** Steps +++++++++++++++++++++++++++++++++++++++++++++++++++
**
**
** Step-1 ++++++++++++++++++++++++++++++++++++++++++++++++++
**
*Step, Nlgeom
*Static, Solver=Pardiso
**
** Controls ++++++++++++++++++++++++++++++++++++++++++++++++
**
**
** Output frequency ++++++++++++++++++++++++++++++++++++++++
**
**
** Boundary conditions +++++++++++++++++++++++++++++++++++++
**
*Boundary, op=New
** Name: Displacement_Rotation-1
*Boundary
Internal_Selection-1_Displacement_Rotation-1, 1, 1, 0
Internal_Selection-1_Displacement_Rotation-1, 2, 2, 0
Internal_Selection-1_Displacement_Rotation-1, 3, 3, 0
Internal_Selection-1_Displacement_Rotation-1, 4, 4, 0
Internal_Selection-1_Displacement_Rotation-1, 5, 5, 0
Internal_Selection-1_Displacement_Rotation-1, 6, 6, 0
**
** Loads +++++++++++++++++++++++++++++++++++++++++++++++++++
**
*Cload, op=New
*Dload, op=New
** Name: Surface_Traction-1
*Cload
2400, 3, -3.33333333E-001
2213, 3, -1.66666667E-001
2410, 3, -6.66666667E-001
2399, 3, -3.33333333E-001
2409, 3, -6.66666667E-001
2398, 3, -3.33333333E-001
2408, 3, -6.66666667E-001
2397, 3, -3.33333333E-001
2407, 3, -6.66666667E-001
2396, 3, -3.33333333E-001
2406, 3, -6.66666667E-001
2395, 3, -3.33333333E-001
2405, 3, -6.66666667E-001
2394, 3, -3.33333333E-001
2404, 3, -6.66666667E-001
2393, 3, -3.33333333E-001
2403, 3, -6.66666667E-001
2392, 3, -3.33333333E-001
2402, 3, -6.66666667E-001
2212, 3, -1.66666667E-001
2401, 3, -6.66666667E-001
**
** Defined fields ++++++++++++++++++++++++++++++++++++++++++
**
**
** History outputs +++++++++++++++++++++++++++++++++++++++++
**
*Node print, Nset=Internal_Selection-1_NODE_SELECTION-1, Global=Yes
U
**
** Field outputs +++++++++++++++++++++++++++++++++++++++++++
**
*Node file
RF, U
*El file, Output=3D
S, E, NOE
**
** End step ++++++++++++++++++++++++++++++++++++++++++++++++
**
*End step
