**
** Heading +++++++++++++++++++++++++++++++++++++++++++++++++
**
*Heading
Hash: 9IR6fZGr, Date: 01/09/2026, Unit system: MM_TON_S_C
**
** Nodes +++++++++++++++++++++++++++++++++++++++++++++++++++
**
*Node
1, 5.00000000E+000, 0.00000000E+000, 2.00000000E+002
2, 4.69362990E+001, 0.00000000E+000, 2.00000000E+002
3, 5.19362990E+001, 5.00000000E+000, 2.00000000E+002
4, 5.19362990E+001, 3.44981185E+001, 2.00000000E+002
5, 4.69362990E+001, 3.94981185E+001, 2.00000000E+002
6, 5.00000000E+000, 3.94981185E+001, 2.00000000E+002
7, 0.00000000E+000, 3.44981185E+001, 2.00000000E+002
8, 0.00000000E+000, 5.00000000E+000, 2.00000000E+002
9, 4.40027021E+000, 3.03495196E+001, 2.00000000E+002
10, 4.40027021E+000, 9.06216974E+000, 2.00000000E+002
11, 9.40027021E+000, 3.53495196E+001, 2.00000000E+002
12, 4.26148419E+001, 3.53495196E+001, 2.00000000E+002
13, 4.76148419E+001, 3.03495196E+001, 2.00000000E+002
14, 4.76148419E+001, 9.06216974E+000, 2.00000000E+002
15, 4.26148419E+001, 4.06216974E+000, 2.00000000E+002
16, 9.40027021E+000, 4.06216974E+000, 2.00000000E+002
17, 5.00000000E+000, 0.00000000E+000, 0.00000000E+000
18, 4.69362990E+001, 0.00000000E+000, 0.00000000E+000
19, 5.19362990E+001, 5.00000000E+000, 0.00000000E+000
20, 5.19362990E+001, 3.44981185E+001, 0.00000000E+000
** ... 6310 like lines cut
**
** Elements ++++++++++++++++++++++++++++++++++++++++++++++++
**
*Element, Type=C3D20, Elset=Profile
1, 803, 49, 48, 802, 3647, 1307, 1290, 3630, 833, 54, 835, 834, 4159, 1428, 4161,
4160, 4157, 1429, 1394, 4158
2, 3647, 1307, 1290, 3630, 3648, 1308, 1291, 3631, 4159, 1428, 4161, 4160, 4164, 1430, 4166,
4165, 4162, 1431, 1396, 4163
3, 3648, 1308, 1291, 3631, 3649, 1309, 1292, 3632, 4164, 1430, 4166, 4165, 4169, 1432, 4171,
4170, 4167, 1433, 1398, 4168
4, 3649, 1309, 1292, 3632, 3650, 1310, 1293, 3633, 4169, 1432, 4171, 4170, 4174, 1434, 4176,
4175, 4172, 1435, 1400, 4173
5, 3650, 1310, 1293, 3633, 3651, 1311, 1294, 3634, 4174, 1434, 4176, 4175, 4179, 1436, 4181,
4180, 4177, 1437, 1402, 4178
6, 3651, 1311, 1294, 3634, 3652, 1312, 1295, 3635, 4179, 1436, 4181, 4180, 4184, 1438, 4186,
4185, 4182, 1439, 1404, 4183
7, 3652, 1312, 1295, 3635, 3653, 1313, 1296, 3636, 4184, 1438, 4186, 4185, 4189, 1440, 4191,
4190, 4187, 1441, 1406, 4188
8, 3653, 1313, 1296, 3636, 3654, 1314, 1297, 3637, 4189, 1440, 4191, 4190, 4194, 1442, 4196,
4195, 4192, 1443, 1408, 4193
9, 3654, 1314, 1297, 3637, 3655, 1315, 1298, 3638, 4194, 1442, 4196, 4195, 4199, 1444, 4201,
4200, 4197, 1445, 1410, 4198
10, 3655, 1315, 1298, 3638, 3656, 1316, 1299, 3639, 4199, 1444, 4201, 4200, 4204, 1446, 4206,
4205, 4202, 1447, 1412, 4203
** ... 2212 like lines cut
**
** Node sets +++++++++++++++++++++++++++++++++++++++++++++++
**
*Nset, Nset=Internal_Selection-1_Fixed-1
1, 2, 3, 4, 5, 6, 7, 8, 9, 10, 11, 12, 13, 14, 15, 16, 
33, 34, 35, 36, 37, 38, 39, 40, 41, 42, 43, 44, 45, 46, 47, 48, 
49, 50, 51, 52, 53, 54, 55, 56, 57, 58, 59, 60, 61, 62, 63, 64, 
65, 66, 67, 68, 69, 70, 71, 72, 73, 74, 75, 76, 77, 78, 79, 80, 
81, 82, 83, 84, 85, 86, 87, 88, 89, 90, 91, 92, 93, 94, 95, 96, 
97, 98, 99, 100, 101, 102, 103, 104, 105, 106, 107, 108, 109, 110, 111, 112, 
113, 114, 115, 116, 117, 118, 119, 120, 121, 122, 123, 124, 125, 126, 127, 128, 
129, 130, 131, 132, 133, 134, 135, 136, 801, 802, 803, 804, 805, 806, 807, 808, 
809, 810, 811, 812, 813, 814, 815, 816, 817, 818, 819, 820, 821, 822, 823, 824, 
825, 826, 827, 828, 829, 830, 831, 832, 833, 834, 835, 836, 837, 838, 839, 840, 
841, 842, 843, 844, 845, 846, 847, 848, 849, 850, 851, 852, 853, 854, 855, 856, 
857, 858, 859, 860, 861, 862, 863, 864, 865, 866, 867, 868, 869, 870, 871, 872, 
873, 874, 875, 876, 877, 878, 879, 880, 881, 882, 883, 884, 885, 886, 887, 888, 
889, 890, 891, 892, 893, 894, 895, 896, 897, 898, 899, 900, 901, 902, 903, 904, 
905, 906, 907, 908, 909, 910, 911, 912, 913, 914, 915, 916, 917, 918, 919, 920, 
921, 922, 923, 924, 925, 926
*Nset, Nset=Internal-1_Internal_Selection-1_Surface_traction-1
17, 18, 19, 20, 21, 22, 23, 24, 25, 26, 27, 28, 29, 30, 31, 32, 
207, 208, 209, 210, 211, 212, 213, 214, 215, 216, 217, 253, 254, 255, 291, 292, 
293, 294, 295, 296, 297, 298, 299, 300, 301, 337, 338, 339, 375, 376, 377, 378, 
379, 380, 381, 382, 383, 384, 385, 421, 422, 423, 459, 460, 461, 462, 463, 464, 
465, 466, 467, 468, 469, 470, 471, 472, 543, 544, 545, 546, 547, 548, 549, 585, 
586, 587, 623, 624, 625, 626, 627, 628, 629, 630, 631, 632, 633, 669, 670, 671, 
707, 708, 709, 710, 711, 712, 713, 749, 750, 751, 787, 788, 789, 790, 791, 792, 
793, 794, 795, 796, 797, 798, 799, 800, 3487, 3488, 3489, 3490, 3491, 3492, 3493, 3494, 
3495, 3496, 3497, 3498, 3499, 3500, 3501, 3502, 3503, 3504, 3505, 3506, 3507, 3508, 3509, 3510, 
3511, 3512, 3513, 3514, 3515, 3516, 3517, 3518, 3519, 3520, 3521, 3522, 3523, 3524, 3525, 3526, 
3527, 3528, 3529, 3530, 3531, 3532, 3533, 3534, 3535, 3536, 3537, 3538, 3539, 3540, 3541, 3542, 
3543, 3544, 3545, 3546, 3547, 3548, 3549, 3550, 3551, 3552, 3553, 3554, 3555, 3556, 3557, 3558, 
3559, 3560, 3561, 3562, 3563, 3564, 3565, 3566, 3567, 3568, 3569, 3570, 3571, 3572, 3573, 3574, 
3575, 3576, 3577, 3578, 3579, 3580, 3581, 3582, 3583, 3584, 3585, 3586, 3587, 3588, 3589, 3590, 
3591, 3592, 3593, 3594, 3595, 3596, 3597, 3598, 3599, 3600, 3601, 3602, 3603, 3604, 3605, 3606, 
3607, 3608, 3609, 3610, 3611, 3612
**
** Element sets ++++++++++++++++++++++++++++++++++++++++++++
**
*Elset, Elset=Internal_Selection-1_Vol_S235
Profile
*Elset, Elset=Internal-1_Internal_Selection-1_Surface_traction-1_S2
18, 36, 54, 72, 90, 108, 126, 144, 162, 180, 198, 216, 234, 252, 270, 288, 
306, 324, 342, 360, 378, 396, 414, 432, 450, 468, 486, 504, 522, 540, 558, 576, 
594, 612, 630, 648, 666, 684, 702, 720, 738, 756, 774, 792, 810, 828, 846, 864, 
882, 900, 918, 936, 954, 972, 990, 1008, 1026, 1044, 1062, 1080, 1098, 1116
**
** Surfaces ++++++++++++++++++++++++++++++++++++++++++++++++
**
*Surface, Name=Internal_Selection-1_Surface_traction-1, Type=Element
Internal-1_Internal_Selection-1_Surface_traction-1_S2, S2
**
** Physical constants ++++++++++++++++++++++++++++++++++++++
**
**
** Coordinate systems ++++++++++++++++++++++++++++++++++++++
**
**
** Materials +++++++++++++++++++++++++++++++++++++++++++++++
**
*Material, Name=S235
*Density
7.8E-09
*Elastic
210000, 0.28
*Expansion, Zero=20
1.1E-05
*Conductivity
14
*Specific heat
440000000
**
** Sections ++++++++++++++++++++++++++++++++++++++++++++++++
**
*Solid section, Elset=Internal_Selection-1_Vol_S235, Material=S235
**
** Pre-tension sections ++++++++++++++++++++++++++++++++++++
**
**
** Constraints +++++++++++++++++++++++++++++++++++++++++++++
**
**
** Surface interactions ++++++++++++++++++++++++++++++++++++
**
**
** Contact pairs +++++++++++++++++++++++++++++++++++++++++++
**
**
** Amplitudes ++++++++++++++++++++++++++++++++++++++++++++++
**
**
** Initial conditions ++++++++++++++++++++++++++++++++++++++
**
**
** Steps +++++++++++++++++++++++++++++++++++++++++++++++++++
**
**
** Step-1 ++++++++++++++++++++++++++++++++++++++++++++++++++
**
*Step
*Static, Solver=Spooles
**
** Controls ++++++++++++++++++++++++++++++++++++++++++++++++
**
**
** Output frequency ++++++++++++++++++++++++++++++++++++++++
**
**
** Boundary conditions +++++++++++++++++++++++++++++++++++++
**
*Boundary, op=New
** Name: Fixed-1
*Boundary
Internal_Selection-1_Fixed-1, 1, 6, 0
**
** Loads +++++++++++++++++++++++++++++++++++++++++++++++++++
**
*Cload, op=New
*Dload, op=New
** Name: Surface_traction-1
*Cload
3489, 1, -2.5317347939323
3488, 1, -4.3231663250326
292, 1, -2.16636599E+000
293, 1, -1.6878227921262
3520, 1, 6.75129359145153
3519, 1, 8.66546397375217
298, 1, 3.37564558422711
3521, 1, 6.75129116850479
294, 1, -2.16662671E+000
3487, 1, -4.3236877682362
299, 1, 3.37564558427768
3523, 1, 8.66650685990122
3522, 1, 6.75129359150209
708, 1, -3.46994938E+000
3524, 1, 8.62824421304356
3525, 1, 8.62720132637823
3492, 1, -2.57790758E+000
461, 1, -1.71860464E+000
462, 1, -2.20506628E+000
3490, 1, -4.40151896E+000
** ... 226 like lines cut
**
** Defined fields ++++++++++++++++++++++++++++++++++++++++++
**
**
** History outputs +++++++++++++++++++++++++++++++++++++++++
**
**
** Field outputs +++++++++++++++++++++++++++++++++++++++++++
**
*Node file
RF, U
*El file
S, E, NOE
**
** End step ++++++++++++++++++++++++++++++++++++++++++++++++
**
*End step
