**
** Heading +++++++++++++++++++++++++++++++++++++++++++++++++
**
*Heading
Hash: 6a50aOWV, Date: 01/05/2026, Unit system: MM_TON_S_C
**
** Nodes +++++++++++++++++++++++++++++++++++++++++++++++++++
**
*Node
1, 2.60000000E-015, -5.28964966E+001, -4.34256645E+000
2, 2.80000000E-015, -5.49579522E+001, -2.85865231E+000
3, 3.60000000E-015, -4.69448158E+001, 8.27320748E+000
4, 3.40000000E-015, -4.48833603E+001, 6.78929334E+000
5, -4.13000000E+001, 0.00000000E+000, 1.58300000E+001
6, 4.13000000E+001, 5.10000000E-015, 1.58300000E+001
7, -4.00300000E+001, 5.00000000E-015, 1.71000000E+001
8, 4.00300000E+001, 0.00000000E+000, 1.71000000E+001
9, 8.62478271E+000, -4.03893937E+001, 1.58300000E+001
10, 8.35956542E+000, -3.91473954E+001, 1.71000000E+001
11, -4.00300000E+001, 5.00000000E-015, -1.71000000E+001
12, 4.00300000E+001, 0.00000000E+000, -1.71000000E+001
13, -4.13000000E+001, 0.00000000E+000, -1.58300000E+001
14, 4.13000000E+001, 5.10000000E-015, -1.58300000E+001
15, 3.36300000E+001, -2.17123007E+001, -1.71000000E+001
16, 3.49000000E+001, -2.20834780E+001, -1.58300000E+001
17, 2.98700000E+001, 3.90000000E-015, -7.53000000E+000
18, 2.98700000E+001, 0.00000000E+000, 1.22740000E+001
19, -2.98700000E+001, 3.80000000E-015, 1.22740000E+001
20, -2.98700000E+001, 0.00000000E+000, -7.53000000E+000
** ... 4465 like lines cut
**
** Elements ++++++++++++++++++++++++++++++++++++++++++++++++
**
*Element, Type=C3D4, Elset=Solid_part-1
1, 3229, 3140, 497, 3271
2, 2119, 3232, 2064, 2141
3, 408, 2335, 2219, 3664
4, 2678, 3674, 2688, 2687
5, 3140, 3229, 2143, 3230
6, 2042, 3236, 2119, 3232
7, 3239, 3266, 3265, 4136
8, 3265, 3242, 1317, 3520
9, 3241, 3238, 2072, 3139
10, 1859, 1858, 3260, 3661
11, 3238, 687, 2072, 3139
12, 4068, 2570, 3968, 4070
13, 3264, 423, 1202, 424
14, 2070, 3535, 2148, 2099
15, 3277, 2495, 2438, 2424
16, 4146, 1302, 3534, 1374
17, 2840, 3671, 71, 1019
18, 103, 3579, 3575, 1288
19, 3238, 3243, 1387, 3524
20, 3637, 3642, 1476, 1535
** ... 16070 like lines cut
**
** Node sets +++++++++++++++++++++++++++++++++++++++++++++++
**
*Nset, Nset=Bolt-1
33, 34, 35, 36, 530, 531, 532, 533, 534, 535, 536, 537, 538, 539, 540, 541,
542, 543, 544, 545, 813, 814, 815, 816, 817, 980, 981, 982, 983, 984, 1272, 1273,
1274, 1275, 1276, 1277, 1278, 1279, 1280, 1281, 1282, 1283, 1284, 3024, 3025, 3026, 3027, 3028,
3029, 3030, 3031, 3032, 3033, 3034, 3035, 3036, 3037, 3038
*Nset, Nset=Bolt-2
29, 30, 31, 32, 514, 515, 516, 517, 518, 519, 520, 521, 522, 523, 524, 525,
526, 527, 528, 529, 808, 809, 810, 811, 812, 1084, 1085, 1086, 1087, 1088, 1259, 1260,
1261, 1262, 1263, 1264, 1265, 1266, 1267, 1268, 1269, 1270, 1271, 3039, 3040, 3041, 3042, 3043,
3044, 3045, 3046, 3047, 3048, 3049, 3050, 3051, 3052, 3053
*Nset, Nset=Bolt-3
25, 26, 27, 28, 498, 499, 500, 501, 502, 503, 504, 505, 506, 507, 508, 509,
510, 511, 512, 513, 803, 804, 805, 806, 807, 1089, 1090, 1091, 1092, 1093, 1246, 1247,
1248, 1249, 1250, 1251, 1252, 1253, 1254, 1255, 1256, 1257, 1258, 3054, 3055, 3056, 3057, 3058,
3059, 3060, 3061, 3062, 3063, 3064, 3065, 3066, 3067, 3068
*Nset, Nset=Load
17, 18, 19, 20, 21, 22, 23, 24, 422, 423, 424, 425, 426, 427, 428, 429,
430, 431, 432, 433, 434, 435, 436, 437, 438, 439, 440, 441, 442, 443, 444, 445,
446, 447, 448, 449, 450, 451, 452, 453, 454, 455, 456, 457, 458, 459, 460, 461,
462, 463, 464, 465, 466, 467, 468, 469, 470, 471, 472, 473, 474, 475, 476, 477,
478, 479, 480, 481, 482, 483, 484, 485, 486, 487, 488, 489, 490, 491, 492, 493,
494, 495, 496, 497, 667, 668, 669, 670, 671, 672, 673, 674, 675, 676, 677, 678,
679, 680, 681, 682, 683, 684, 685, 686, 687, 778, 779, 780, 781, 782, 783, 784,
785, 786, 787, 788, 789, 790, 791, 792, 793, 794, 795, 796, 797, 798, 799, 800,
801, 802, 1166, 1167, 1168, 1169, 1170, 1171, 1172, 1173, 1174, 1175, 1176, 1177, 1178, 1179,
1180, 1181, 1182, 1183, 1184, 1185, 1186, 1187, 1188, 1189, 1190, 1191, 1192, 1193, 1194, 1201,
1202, 1203, 1204, 1205, 1206, 1207, 1208, 1209, 1210, 1211, 1212, 1213, 1214, 1215, 1216, 1217,
1218, 1219, 1220, 1221, 1222, 1223, 1224, 1225, 1226, 1227, 1228, 1229, 1230, 1231, 1232, 1233,
1234, 1235, 1236, 1237, 1238, 1239, 1240, 1241, 1242, 1243, 1244, 1245, 3139, 3140, 3141, 3142,
3143, 3144, 3145, 3146, 3147, 3148, 3149, 3150, 3151, 3152, 3153, 3154, 3155, 3156, 3157, 3158,
3159, 3160, 3161, 3162, 3163, 3164, 3165, 3166, 3167, 3168, 3169, 3170, 3171, 3172, 3173, 3174,
3175, 3176, 3177, 3178, 3179, 3180, 3181, 3182, 3183, 3184, 3185, 3186, 3187, 3188, 3189
*Nset, Nset=Internal_Selection-1_Fixed-1
25, 26, 27, 28, 29, 30, 31, 32, 33, 34, 35, 36, 498, 499, 500, 501,
502, 503, 504, 505, 506, 507, 508, 509, 510, 511, 512, 513, 514, 515, 516, 517,
518, 519, 520, 521, 522, 523, 524, 525, 526, 527, 528, 529, 530, 531, 532, 533,
534, 535, 536, 537, 538, 539, 540, 541, 542, 543, 544, 545, 803, 804, 805, 806,
807, 808, 809, 810, 811, 812, 813, 814, 815, 816, 817, 980, 981, 982, 983, 984,
1084, 1085, 1086, 1087, 1088, 1089, 1090, 1091, 1092, 1093, 1246, 1247, 1248, 1249, 1250, 1251,
1252, 1253, 1254, 1255, 1256, 1257, 1258, 1259, 1260, 1261, 1262, 1263, 1264, 1265, 1266, 1267,
1268, 1269, 1270, 1271, 1272, 1273, 1274, 1275, 1276, 1277, 1278, 1279, 1280, 1281, 1282, 1283,
1284, 3024, 3025, 3026, 3027, 3028, 3029, 3030, 3031, 3032, 3033, 3034, 3035, 3036, 3037, 3038,
3039, 3040, 3041, 3042, 3043, 3044, 3045, 3046, 3047, 3048, 3049, 3050, 3051, 3052, 3053, 3054,
3055, 3056, 3057, 3058, 3059, 3060, 3061, 3062, 3063, 3064, 3065, 3066, 3067, 3068
*Nset, Nset=Internal-1_Internal_Selection-1_Surface_Traction-1
17, 18, 19, 20, 422, 423, 424, 425, 426, 427, 428, 429, 430, 431, 432, 433,
434, 435, 436, 437, 438, 439, 440, 441, 442, 443, 444, 445, 446, 447, 448, 449,
450, 451, 452, 453, 454, 455, 1166, 1167, 1168, 1169, 1170, 1171, 1172, 1173, 1174, 1175,
1176, 1177, 1178, 1179, 1180, 1181, 1182, 1183, 1184, 1185, 1186, 1187, 1188, 1189, 1190, 1191,
1192, 1193, 1194, 1201, 1202, 1203, 1204, 1205, 1206, 1207, 1208, 1209, 1210, 1211, 1212, 1213,
1214, 1215, 1216, 1217, 1218, 1219, 1220, 1221, 1222, 1223, 1224, 1225, 1226, 1227, 1228, 1229,
1230, 1231, 1232, 1233, 3161, 3162, 3163, 3164, 3165, 3166, 3167, 3168, 3169, 3170, 3171, 3172,
3173, 3174, 3175, 3176, 3177, 3178, 3179, 3180, 3181, 3182, 3183, 3184, 3185, 3186, 3187, 3188,
3189
**
** Element sets ++++++++++++++++++++++++++++++++++++++++++++
**
*Elset, Elset=Internal-1_Internal_Selection-1_Surface_Traction-1_S3
13, 56, 222, 250, 311, 949, 1064, 1921, 1945, 2686, 2914, 2940, 2946, 2996, 3340, 3539,
3687, 4319, 4695, 4928, 5068, 5703, 5731, 5965, 6154, 6193, 6201, 6204, 6301, 6530, 6583, 7139,
7494, 7548, 7668, 8212, 8466, 8496, 9834, 9924, 10426, 10530, 10569, 10650, 10732, 10872, 10990, 11026,
11048, 11564, 11565, 11831, 11914, 12334, 12776, 12851, 12861, 12969, 13153, 13347, 13406, 13576, 13652, 13843,
13909, 15026, 15030, 15166, 15858
*Elset, Elset=Internal-1_Internal_Selection-1_Surface_Traction-1_S2
65, 290, 1443, 1596, 1889, 2141, 2913, 2955, 3013, 3327, 3525, 3541, 3740, 3848, 3957, 4103,
4451, 4492, 5010, 5794, 6104, 6148, 6205, 6349, 6505, 6692, 6735, 7116, 7140, 7251, 7350, 7627,
7645, 7682, 7916, 9038, 9919, 10241, 10467, 10775, 11687, 11936, 12168, 12342, 12347, 12865, 13625, 13665,
13696, 13825, 13946, 14203, 14229, 14801, 15033, 15057
*Elset, Elset=Internal-1_Internal_Selection-1_Surface_Traction-1_S4
787, 1218, 2888, 2985, 3408, 4383, 5611, 5804, 6546, 6932, 7153, 7367, 7583, 7640, 7649, 7662,
7678, 7679, 7686, 7848, 8236, 8361, 9009, 9013, 9539, 9921, 10087, 10520, 10606, 10907, 11117, 12161,
12863, 13542, 14048, 14252, 14265, 14456, 15154, 15992
*Elset, Elset=Internal-1_Internal_Selection-1_Surface_Traction-1_S1
1002, 1397, 3169, 3787, 4116, 4360, 4364, 5064, 5861, 6191, 6273, 6839, 6929, 7375, 7652, 7752,
8486, 9533, 9547, 9599, 10412, 10619, 11635, 11903, 12361, 12520, 12549, 13169, 14271, 14851, 15848, 15892
*Elset, Elset=Internal_Selection-1_Solid_Section-1
Solid_part-1
**
** Surfaces ++++++++++++++++++++++++++++++++++++++++++++++++
**
*Surface, Name=Internal_Selection-1_Surface_Traction-1, Type=Element
Internal-1_Internal_Selection-1_Surface_Traction-1_S3, S3
Internal-1_Internal_Selection-1_Surface_Traction-1_S2, S2
Internal-1_Internal_Selection-1_Surface_Traction-1_S4, S4
Internal-1_Internal_Selection-1_Surface_Traction-1_S1, S1
**
** Physical constants ++++++++++++++++++++++++++++++++++++++
**
**
** Coordinate systems ++++++++++++++++++++++++++++++++++++++
**
**
** Materials +++++++++++++++++++++++++++++++++++++++++++++++
**
*Material, Name=S235
*Density
7.8E-09
*Elastic
210000, 0.28
*Expansion, Zero=20
1.1E-05
*Conductivity
14
*Specific heat
440000000
**
** Sections ++++++++++++++++++++++++++++++++++++++++++++++++
**
*Solid section, Elset=Internal_Selection-1_Solid_Section-1, Material=S235
**
** Pre-tension sections ++++++++++++++++++++++++++++++++++++
**
**
** Constraints +++++++++++++++++++++++++++++++++++++++++++++
**
**
** Surface interactions ++++++++++++++++++++++++++++++++++++
**
**
** Contact pairs +++++++++++++++++++++++++++++++++++++++++++
**
**
** Amplitudes ++++++++++++++++++++++++++++++++++++++++++++++
**
**
** Initial conditions ++++++++++++++++++++++++++++++++++++++
**
**
** Steps +++++++++++++++++++++++++++++++++++++++++++++++++++
**
**
** Step-1 ++++++++++++++++++++++++++++++++++++++++++++++++++
**
*Step
*Static, Solver=SPOOLES
**
** Controls ++++++++++++++++++++++++++++++++++++++++++++++++
**
**
** Output frequency ++++++++++++++++++++++++++++++++++++++++
**
**
** Boundary conditions +++++++++++++++++++++++++++++++++++++
**
*Boundary, op=New
** Name: Fixed-1
*Boundary
Internal_Selection-1_Fixed-1, 1, 6, 0
**
** Loads +++++++++++++++++++++++++++++++++++++++++++++++++++
**
*Cload, op=New
*Dload, op=New
** Name: Surface_Traction-1
*Cload
423, 3, 7.06712752E-001
424, 3, 4.42120712E-001
1202, 3, 7.87714109E-001
3182, 3, 1.30055445635847
1191, 3, 7.28376225E-001
3186, 3, 1.50880542402372
1220, 3, 8.39443756E-001
450, 3, 4.33319894E-001
449, 3, 4.55721523E-001
3178, 3, 1.26207547655929
3184, 3, 1.22883614381223
1184, 3, 6.76969125E-001
432, 3, 4.61144651E-001
1208, 3, 8.71706125E-001
431, 3, 5.15234757E-001
3185, 3, 1.31457591094424
1188, 3, 7.46567609E-001
3180, 3, 1.54021931594113
1230, 3, 6.06078384E-001
1231, 3, 7.96777919E-001
** ... 109 like lines cut
**
** Defined fields ++++++++++++++++++++++++++++++++++++++++++
**
**
** History outputs +++++++++++++++++++++++++++++++++++++++++
**
**
** Field outputs +++++++++++++++++++++++++++++++++++++++++++
**
*Node print, nset=Load
U
*Node file
RF, U
*El file
S, E, NOE
**
** End step ++++++++++++++++++++++++++++++++++++++++++++++++
**
*End step
